 ****** HSPICE -- A-2008.03 32-BIT (Feb 26 2008) winnt ******                   
  Copyright (C) 2008 Synopsys, Inc. All Rights Reserved.                        
  Unpublished-rights reserved under US copyright laws.
  This program is protected by law and is subject to the 
  terms and conditions of the license agreement found in:
    C:\synopsys\Hspice_A-2008.03\license.warn
  Use of this program is your acceptance to be bound by this 
  license agreement. HSPICE is the trademark of Synopsys, Inc.
  Input File: c:\users\user\desktop\107360145project109-1\project.sp            
 Init: read install configuration file: C:\synopsys\Hspice_A-2008.03\meta.cfg
 Init: hspice initialization file: C:\synopsys\Hspice_A-2008.03\hspice.ini





 .include  'c:\synopsys\hspice_a-2008.03\models\lib.sp'
 .lib 'core_rf_v2d5.lib' tt                        * tt, ff, ss, fnsp, snfp

 .param
 *
 + dcd_n_18_rf=0
 + dcgs_n_18_rf=0
 + drgate_n_18_rf=0
 + dtox_n_18_rf=0.0000e+00
 + dxl_n_18_rf=0.0000e+00
 + dxw_n_18_rf=0.0000e+00
 + dvth0_n_18_rf=0.0000e+00
 + du0_n_18_rf=0.0000e+00
 + dlvth0_n_18_rf=0.0000e+00
 + dwvth0_n_18_rf=0.0000e+00
 + dwu0_n_18_rf=0.0000e+00
 + dpvth0_n_18_rf=0.0000e+00
 + dpvsat_n_18_rf=0.0000e+00
 + dcf_n_18_rf=0.0000e+00
 + dcgdo_n_18_rf=0.0000e+00
 + dcgdl_n_18_rf=0.0000e+00
 + dcgso_n_18_rf=0.0000e+00
 + dcgsl_n_18_rf=0.0000e+00
 + dcj_n_18_rf=0.0000e+00
 + dcjsw_n_18_rf=0.0000e+00
 + dcjgate_n_18_rf=0.0000e+00
 *
 + dcd_p_18_rf=0
 + dcgs_p_18_rf=0
 + drgate_p_18_rf=0
 + dcgdl_p_18_rf=0.0000e+00
 + dcgsl_p_18_rf=0.0000e+00
 + dcf_p_18_rf=0.0000e+00
 + dtox_p_18_rf=0.0000e+00
 + du0_p_18_rf=0.0000e+00
 + dxl_p_18_rf=0.0000e+00
 + dxw_p_18_rf=0.0000e+00
 + dvth0_p_18_rf=0.0000e+00
 + dlvth0_p_18_rf=0.0000e+00
 + dwvth0_p_18_rf=0.0000e+00
 + dpvth0_p_18_rf=0.0000e+00
 + dpvsat_p_18_rf=0.0000e+00
 + dcgdo_p_18_rf=0.0000e+00
 + dcgso_p_18_rf=0.0000e+00
 + dcj_p_18_rf=0.0000e+00
 + dcjsw_p_18_rf=0.0000e+00
 + dcjgate_p_18_rf=0.0000e+00
 .include './core_rf_v2d5.mdl'
 *          
 *
 *     ############################################
 *     #                                          #
 *     #  018rfcmos 1.8v nmos scalable with nf    #
 *     #  hspice model                            #            
 *     #                                          #  
 *     ############################################
 *
 *
 .subckt n_l18w500_18_rf 1 2 3 4 nf=21
 *
 *
 * #### define bsim3v3 model variable #####
 *
 .param p_wr='(841.3723+1543.5167/nf-4288.7956/(nf*nf))*1e-3'
 *
 * #### define rf extension model variable #####
 *
 .param p_rg='-0.8966+107.7889/nf-364.622/(nf*nf)'
 .param p_cd='(0.9008+0.2570*nf+0.2297*(nf*nf))*1e-15'
 .param p_cgs='(-2.0811+1.4629*nf+0.009752*(nf*nf))*1e-15'
 .param p_ld='(24.8301+396.8130/nf-1112.3751/(nf*nf))*1e-12'
 .param p_ls='(24.8301+396.8130/nf-1112.3751/(nf*nf))*1e-12'
 .param p_djdb_a='(4.25*((nf+1)/2))*1e-12'
 .param p_djdb_p='(1.7*((nf+1)/2)+5)*1e-6'
 .param p_djdb_g='(5*nf)*1e-6'
 .param p_djsb_a='(4.25*((nf+1)/2))*1e-12'
 .param p_djsb_p='(1.7*((nf+1)/2)+5)*1e-6'
 .param p_djsb_g='(5*nf)*1e-6'
 .param p_rsub1='120.783-258.189/nf+939.7544/(nf*nf)'
 .param p_rsub2=2
 .param p_rsub3=2
 *
 * --------- gate network ------------------------------
 cgs_ext 21 30 'p_cgs*(1+dcgs_n_18_rf)'
 rgate 2 21 'p_rg*(1+drgate_n_18_rf)'
 *
 * --------- drain network -----------------------------
 ldrain 1 11 p_ld
 lsource 30 3 p_ls
 cd 11 30 'p_cd* (1+dcd_n_18_rf)'
 *
 * --------- substrate network -------------------------
 * diodes are for n-type mos transistors
 *
 djdb_area 12 11
 + bsim_diode_area
 + area = p_djdb_a
 djdb_perim 12 11
 + bsim_diode_perim
 + area = p_djdb_p
 djdb_swg 12 11
 + bsim_diode_swg
 + area = p_djdb_g
 *
 djsb_area 31 30
 + bsim_diode_area
 + area = p_djsb_a
 djsb_perim 31 30
 + bsim_diode_perim
 + area = p_djsb_p
 djsb_swg 31 30
 + bsim_diode_swg
 + area = p_djsb_g
 *
 rsub2 12 40 p_rsub2
 rsub3 31 40 p_rsub3
 rsub1 40 4 p_rsub1
 *
 * --------- ideal mos transistor ----------------------
 main 11 21 30 40
 + bsim_mos_transistor
 + l = 1.8e-07
 + w = 5e-6
 + ad = 0
 + as = 0
 + pd = 0
 + ps = 0
 + m = nf
 *
 * -------- diodes & nmosfet spice parameters ------------
 *
 .model bsim_diode_area d
 + cj0 = '0.00103*(1+dcj_n_18_rf )'  vj = 0.813  m = 0.443  is = 1e-06  n = 1
 *
 .model bsim_diode_perim d
 + cj0 = '1.34e-10*(1+dcjsw_n_18_rf )'  vj = 0.88  m = 0.33  is = 7e-11  n = 1
 *
 .model bsim_diode_swg d
 + cj0 = '5e-10*(1+ dcjgate_n_18_rf)'  vj = 0.88  m = 0.33  is = 7e-11  n = 1
 *
 .model bsim_mos_transistor nmos
 + level = 49 version = 3.2 binunit = 1 mobmod = 1
 + capmod = 2 nqsmod = 0 noimod = 2 tox = '4.2e-09+ dtox_n_18_rf'
 + toxm = 4.2e-09 xj = 1.6e-07 nch = 3.745e+17 rsh = 8
 + ngate = 1e+23 vth0 = '0.3075+ dvth0_n_18_rf' k1 = 0.4578 k2 = -0.02638
 + k3 = -10.88 k3b = 0.2379 w0 = -8.813e-08 nlx = 4.279e-07
 + dvt0 = 0.4042 dvt1 = 0.3237 dvt2 = -0.8602 dvt0w = 0.383
 + dvt1w = 6e+05 dvt2w = -0.025 lint = 1.587e-08 wint = 1.022e-08
 + dwg = -3.396e-09 dwb = 1.346e-09 u0 = '332.1+ du0_n_18_rf' ua = -1.17e-09
 + ub = 2.407e-18 uc = 4.355e-11 vsat = 8.1e+04 a0 = 1.93
 + ags = 0.5072 b0 = 1.486e-06 b1 = 9.064e-06 keta = 0.01752
 + a1 = 0 a2 = 1 voff = -0.1208 nfactor = 1.038
 + cit = -0.001511 cdsc = 0.002175 cdscd = 0 cdscb = 0.0008241
 + eta0 = 0.005504 etab = -0.001459 dsub = 0.001592 pclm = 0.741
 + pdiblc1 = 0.005061 pdiblc2 = 0.006001 pdiblcb = 0 drout = 0.001592
 + pscbe1 = 4.866e+08 pscbe2 = 3e-08 pvag = -0.2958 rdsw = 9.905
 + prwg = 1.1 prwb = 0 wr = p_wr alpha0 = 0
 + alpha1 = 0 beta0 = 30 xpart = 1 cgso = '1.55e-10*(1+dcgso_n_18_rf )'
 + cgdo = '1.55e-10*(1+dcgdo_n_18_rf )' cgbo = 0 cgsl = '3e-11*(1+dcgsl_n_18_rf )' cgdl = '3e-11*(1+dcgdl_n_18_rf )'
 + ckappa = 0.6 cf = '2.33e-11*(1+dcf_n_18_rf )' clc = 1e-07 cle = 0.6
 + dlc = 4e-08 dwc = 0 vfbcv = -1 noff = 1
 + voffcv = 0 acde = 1 moin = 15 noia = 1.31826e+19
 + noib = 1.44544e+05 noic = -1.24516e-12 em = 4.1e+07 af = 1
 + ef = 0.92 kf = 0 lmin = 1.8e-07 lmax = 1.805e-07
 + wmin = 5e-06 wmax = 1.05e-04 xl = '-1.05e-08+  dxl_n_18_rf' xw = '0+ dxw_n_18_rf'
 + js = 1e-06 jsw = 7e-11 cj = '0.00103*(1+dcj_n_18_rf)' mj = 0.443
 + pb = 0.813 cjsw = '1.34e-10*(1+dcjsw_n_18_rf)' mjsw = 0.33 tnom = 25
 + ute = -1.286 kt1 = -0.2255 kt1l = -4.175e-09 kt2 = -0.02527
 + ua1 = 2.153e-09 ub1 = -2.673e-18 uc1 = -3.832e-11 at = 1.449e+04
 + prt = -46.18 xti = 3 wl = 0 wln = 1
 + ww = 7.262e-16 wwn = 1 wwl = 0 ll = -1.062e-15
 + lln = 1 lw = 2.996e-15 lwn = 1 lwl = 0
 + llc = -6.64e-15 lwc = 0 lwlc = 0 wlc = 0
 + wwc = 0 wwlc = 0 lvth0 = '-0.0001+ dlvth0_n_18_rf' wvth0 = '0.06027+ dwvth0_n_18_rf'
 + pvth0 = '0+ dpvth0_n_18_rf' lnlx = -2.854e-08 wnlx = 0 pnlx = 0
 + lnfactor = 0.032 wua = -1.88e-11 wu0 = 0.54 pub = 3.8e-20
 + pw0 = 1.3e-09 lua = 1.5e-11 lub = 9.76e-20 wrdsw = 0
 + weta0 = 0 wetab = 0 leta0 = 0.001574 letab = 0
 + peta0 = 0 petab = 0 wpclm = 0 wvoff = -0.0004078
 + lvoff = -0.004208 pvoff = -0.0003788 wa0 = -0.04731 la0 = -0.4667
 + pa0 = -0.02649 wags = 0.004242 lags = 0.3028 pags = 0
 + wketa = 0 lketa = -0.01942 pketa = 0 wute = 0.06373
 + lute = 0 pute = 0 wvsat = 5066 lvsat = 0
 + pvsat = '0+ dpvsat_n_18_rf' lpdiblc2 = -0.004752 wat = 7067 wprt = 0
 + acm = 3 ldif = 8e-08 hdif = 2.6e-07 n = 1
 + php = 0.88 cjgate = '5e-10*(1+dcjgate_n_18_rf)' ctp = 0.000914 ptp = 0.000924
 + cta = 0.000919 pta = 0.00158 elm = 5 tlevc = 1
  **warning** (C:\synopsys\Hspice_A-2008.03\Models\.\core_rf_v2d5.mdl:109)  model b63            }device geometries will not be checked against the limits set bylmin, lmax, wmin and wmax. To enable this check, add a period(.)to the model name(i.e. enable model selector).
 .ends
 *
 *
 *
 *
 *     ############################################
 *     #                                          #
 *     #  018rfcmos 1.8v nmos scalable with length#
 *     #  hspice model                            #            
 *     #                                          #  
 *     ############################################
 *
 *
 .subckt n_po7w500_18_rf 1 2 3 4 l=0.5u
 *
 .param l_um='l*1e6'
 *
 * #### define bsim3v3 model variable #####
 *
 .param p_nlx='(475.2494-439.9303*l_um+1066.9945*(l_um*l_um))*1e-9'
 .param p_pclm='0.1422+0.0846/l_um+0.0043/(l_um*l_um)'
 *
 * #### define rf extension model variable #####
 *
 .param p_rg='30.0038-10.2118/l_um+0.9998/(l_um*l_um)'
 .param p_cd='(16.3846-30.4825*l_um+21.6092*(l_um*l_um))*1e-15'
 .param p_cgs='(0.5460+55.9389*l_um-66.3582*(l_um*l_um))*1e-15'
 .param p_ld=5.8e-11
 .param p_ls=5.8e-11
 .param p_djdb_a='(4.25*((7+1)/2))*1e-12'
 .param p_djdb_p='(1.7*((7+1)/2)+5)*1e-6'
 .param p_djdb_g='(5*7)*1e-6'
 .param p_djsb_a='(4.25*((7+1)/2))*1e-12'
 .param p_djsb_p='(1.7*((7+1)/2)+5)*1e-6'
 .param p_djsb_g='(5*7)*1e-6'
 .param p_rsub1='93.1907-8.5107/l_um+1.8334/(l_um*l_um)'
 .param p_rsub2=2
 .param p_rsub3=2
 *
 * --------- gate network ------------------------------
 cgs_ext 21 30 'p_cgs* (1+dcgs_n_18_rf)'
 rgate 2 21 'p_rg* (1+drgate_n_18_rf)'
 *
 * --------- drain network -----------------------------
 ldrain 1 11 p_ld
 lsource 30 3 p_ls
 cd 11 30 'p_cd* (1+dcd_n_18_rf)'
 *
 * --------- substrate network -------------------------
 * diodes are for n-type mos transistors
 *
 djdb_area 12 11
 + bsim_diode_area
 + area = p_djdb_a
 djdb_perim 12 11
 + bsim_diode_perim
 + area = p_djdb_p
 djdb_swg 12 11
 + bsim_diode_swg
 + area = p_djdb_g
 *
 djsb_area 31 30
 + bsim_diode_area
 + area = p_djsb_a
 djsb_perim 31 30
 + bsim_diode_perim
 + area = p_djsb_p
 djsb_swg 31 30
 + bsim_diode_swg
 + area = p_djsb_g
 *
 rsub2 12 40 p_rsub2
 rsub3 31 40 p_rsub3
 rsub1 40 4 p_rsub1
 *
 * --------- ideal mos transistor ----------------------
 main 11 21 30 40
 + bsim_mos_transistor
 + l = l
 + w = 5u
 + ad = 0
 + as = 0
 + pd = 0
 + ps = 0
 + m = 7
 *
 * -------- diodes & nmosfet spice parameters ------------
 *
 .model bsim_diode_area d
 + cj0 = '0.00103*(1+dcj_n_18_rf)'  vj = 0.813  m = 0.443  is = 1e-06  n = 1
 *
 .model bsim_diode_perim d
 + cj0 = '1.34e-10*(1+dcjsw_n_18_rf)'  vj = 0.88  m = 0.33  is = 7e-11  n = 1
 *
 .model bsim_diode_swg d
 + cj0 = '5e-10* (1+dcjgate_n_18_rf)'  vj = 0.88  m = 0.33  is = 7e-11  n = 1
 *
 .model bsim_mos_transistor nmos
 + level = 49 version = 3.2 binunit = 1 mobmod = 1
 + capmod = 2 nqsmod = 0 noimod = 2 tox = '4.2e-09+ dtox_n_18_rf'
 + toxm = 4.2e-09 xj = 1.6e-07 nch = 3.745e+17 rsh = 8
 + ngate = 1e+23 vth0 = '0.3075+ dvth0_n_18_rf' k1 = 0.4578 k2 = -0.02638
 + k3 = -10.88 k3b = 0.2379 w0 = -8.813e-08 nlx = p_nlx
 + dvt0 = 0.4042 dvt1 = 0.3237 dvt2 = -0.8602 dvt0w = 0.383
 + dvt1w = 6e+05 dvt2w = -0.025 lint = 1.587e-08 wint = 1.022e-08
 + dwg = -3.396e-09 dwb = 1.346e-09 u0 = '332.1+ du0_n_18_rf' ua = -1.17e-09
 + ub = 2.407e-18 uc = 4.355e-11 vsat = 8.1e+04 a0 = 1.93
 + ags = 0.5072 b0 = 1.486e-06 b1 = 9.064e-06 keta = 0.01752
 + a1 = 0 a2 = 1 voff = -0.1208 nfactor = 1.038
 + cit = -0.001511 cdsc = 0.002175 cdscd = 0 cdscb = 0.0008241
 + eta0 = 0.005504 etab = -0.001459 dsub = 0.001592 pclm = p_pclm
 + pdiblc1 = 0.005061 pdiblc2 = 0.006001 pdiblcb = 0 drout = 0.001592
 + pscbe1 = 4.866e+08 pscbe2 = 3e-08 pvag = -0.2958 rdsw = 9.905
 + prwg = 1.1 prwb = 0 wr = 0.97 alpha0 = 0
 + alpha1 = 0 beta0 = 30 xpart = 0 cgso = '1.35e-10*(1+dcgso_n_18_rf)'
 + cgdo = '1.35e-10*(1+dcgdo_n_18_rf)' cgbo = 0 cgsl = '2e-11*(1+dcgsl_n_18_rf)' cgdl = '2e-11*(1+dcgdl_n_18_rf)'
 + ckappa = 0.6 cf = '1.533e-10*(1+dcf_n_18_rf)' clc = 1e-07 cle = 0.6
 + dlc = 4e-08 dwc = 2e-07 vfbcv = -1 noff = 1
 + voffcv = 0 acde = 1 moin = 15 noia = 1.31826e+19
 + noib = 1.44544e+05 noic = -1.24516e-12 em = 4.1e+07 af = 1
 + ef = 0.92 kf = 0 lmin = 2e-07 lmax = 5e-07
 + wmin = 5e-06 wmax = 3.5e-05 xl = '-1.05e-08+ dxl_n_18_rf' xw = '0+ dxw_n_18_rf'
 + js = 1e-06 jsw = 7e-11 cj = '0.00103*(1+dcj_n_18_rf)' mj = 0.443
 + pb = 0.813 cjsw = '1.34e-10*(1+dcjsw_n_18_rf)' mjsw = 0.33 tnom = 25
 + ute = -1.286 kt1 = -0.2255 kt1l = -4.175e-09 kt2 = -0.02527
 + ua1 = 2.153e-09 ub1 = -2.673e-18 uc1 = -3.832e-11 at = 1.449e+04
 + prt = -46.18 xti = 3 wl = 0 wln = 1
 + ww = 7.262e-16 wwn = 1 wwl = 0 ll = -1.062e-15
 + lln = 1 lw = 2.996e-15 lwn = 1 lwl = 0
 + llc = -6.64e-15 lwc = 0 lwlc = 0 wlc = 0
 + wwc = 0 wwlc = 0 lvth0 = '-0.0001+dlvth0_n_18_rf' wvth0 = '0.06027+ dwvth0_n_18_rf'
 + pvth0 = '0+dpvth0_n_18_rf' lnlx = -2.854e-08 wnlx = 0 pnlx = 0
 + lnfactor = 0.032 wua = -1.88e-11 wu0 = '0.54+ dwu0_n_18_rf' pub = 3.8e-20
 + pw0 = 1.3e-09 lua = 1.5e-11 lub = 9.76e-20 wrdsw = 0
 + weta0 = 0 wetab = 0 leta0 = 0.001574 letab = 0
 + peta0 = 0 petab = 0 wpclm = 0 wvoff = -0.0004078
 + lvoff = -0.004208 pvoff = -0.0003788 wa0 = -0.04731 la0 = -0.4667
 + pa0 = -0.02649 wags = 0.004242 lags = 0.3028 pags = 0
 + wketa = 0 lketa = -0.01942 pketa = 0 wute = 0.06373
 + lute = 0 pute = 0 wvsat = 5066 lvsat = 0
 + pvsat = '0+ dpvsat_n_18_rf' lpdiblc2 = -0.004752 wat = 7067 wprt = 0
 + acm = 3 ldif = 8e-08 hdif = 2.6e-07 n = 1
 + php = 0.88 cjgate = '5e-10*(1+dcjgate_n_18_rf)' ctp = 0.000914 ptp = 0.000924
 + cta = 0.000919 pta = 0.00158 elm = 5 tlevc = 1
  **warning** (C:\synopsys\Hspice_A-2008.03\Models\.\core_rf_v2d5.mdl:253)  model b63            }device geometries will not be checked against the limits set bylmin, lmax, wmin and wmax. To enable this check, add a period(.)to the model name(i.e. enable model selector).
 .ends
 *
 *
 *     ############################################
 *     #                                          #
 *     #  018rfcmos 1.8v pmos scalable with nf    #
 *     #  hspice model                            #            
 *     #                                          #  
 *     ############################################
 *
 *
 .subckt p_l18w500_18_rf 1 2 3 4 nf=21
 *
 *
 * #### define bsim3v3 model variable #####
 *
 .param p_wr='(808.0254+2116.1626/nf-2687.8868/(nf*nf))*1e-3'
 *
 * #### define rf extension model variable #####
 *
 .param p_rg='-6.3044+287.3248/nf-996.0158/(nf*nf)'
 .param p_cd='(3.0460+2.0138*nf+0.0467*(nf*nf))*1e-15'
 .param p_cgs='(0.6197+0.0205*nf+0.0344*(nf*nf))*1e-15'
 .param p_ld='(52.1818+160.1501/nf+649.7715/(nf*nf))*1e-12'
 .param p_ls='(52.1818+160.1501/nf+649.7715/(nf*nf))*1e-12'
 .param p_djdb_a='(4.25*((nf+1)/2))*1e-12'
 .param p_djdb_p='(1.7*((nf+1)/2)+5)*1e-6'
 .param p_djdb_g='(5*nf)*1e-6'
 .param p_djsb_a='(4.25*((nf+1)/2))*1e-12'
 .param p_djsb_p='(1.7*((nf+1)/2)+5)*1e-6'
 .param p_djsb_g='(5*nf)*1e-6'
 .param p_rsub1='70.5835-147.6535/nf-144.7453/(nf*nf)'
 .param p_rsub2=1
 .param p_rsub3=1
 *
 * --------- gate network ------------------------------
 cgs_ext 21 30 'p_cgs*(1+dcgs_p_18_rf)'
 rgate 2 21 'p_rg*(1+ drgate_p_18_rf)'
 *
 * --------- drain network -----------------------------
 ldrain 1 11 p_ld
 lsource 30 3 p_ls
 cd 11 30 'p_cd* (1+ dcd_p_18_rf)'
 *
 * --------- substrate network -------------------------
 * diodes are for p-type mos transistors
 *
 djdb_area 11 12
 + bsim_diode_area
 + area = p_djdb_a
 djdb_perim 11 12
 + bsim_diode_perim
 + area = p_djdb_p
 djdb_swg 11 12
 + bsim_diode_swg
 + area = p_djdb_g
 *
 djsb_area 30 31
 + bsim_diode_area
 + area = p_djsb_a
 djsb_perim 30 31
 + bsim_diode_perim
 + area = p_djsb_p
 djsb_swg 30 31
 + bsim_diode_swg
 + area = p_djsb_g
 *
 rsub2 12 40 p_rsub2
 rsub3 31 40 p_rsub3
 rsub1 40 4 p_rsub1
 *
 * --------- ideal mos transistor ----------------------
 main 11 21 30 40
 + bsim_mos_transistor
 + l = 1.8e-07
 + w = 5e-6
 + ad = 0
 + as = 0
 + pd = 0
 + ps = 0
 + m = nf
 *
 * -------- diodes & pmosfet spice parameters ------------
 *
 .model bsim_diode_area d
 + cj0 = '0.00114*(1+ dcj_p_18_rf)'  vj = 0.762  m = 0.395  is = 3e-06  n = 1
 *
 .model bsim_diode_perim d
 + cj0 = '1.74e-10*(1+ dcjsw_p_18_rf)'  vj = 0.665  m = 0.324  is = 4.12e-11  n = 1
 *
 .model bsim_diode_swg d
 + cj0 = '4.2e-10*(1+ dcjgate_p_18_rf)'  vj = 0.665  m = 0.324  is = 4.12e-11  n = 1
 *
 .model bsim_mos_transistor pmos
 + level = 49 mobmod = 3 version = 3.2 capmod = 2 
 + binunit = 1 nqsmod = 0 noimod = 2 tox = '4.2e-09+ dtox_p_18_rf'
 + toxm = 4.2e-09 xj = 1e-07 nch = 6.131e+17 ngate = 1e+23
 + vth0 = '-0.4325+ dvth0_p_18_rf' k1 = 0.5704 k2 = 0.006973 k3 = -2.833
 + k3b = 1.326 w0 = -1.943e-07 nlx = 2.56e-07 dvt0 = 0.4885
 + dvt1 = 0.09578 dvt2 = 0.1287 dvt0w = -0.1261 dvt1w = 2.479e+04
 + dvt2w = 0.6915 lint = -1.041e-08 wint = -1.525e-07 dwg = -1.151e-07
 + dwb = -1.039e-07 u0 = '90+du0_p_18_rf' ua = 1.49e-09 ub = 4.646e-19
 + uc = -0.09587 vsat = 4.75e+04 a0 = 1.35 ags = 0.3818
 + b0 = -3.088e-07 b1 = 0 keta = 0.01044 a1 = 0
 + a2 = 1 voff = -0.1073 nfactor = 0.984 cit = -0.001067
 + cdsc = 0.0007578 cdscd = 0 cdscb = 0.0001 eta0 = 1.071
 + etab = -0.9291 dsub = 1.919 pclm = 0.553 pdiblc1 = 0.007
 + pdiblc2 = 0.008005 pdiblcb = 0 drout = 0.157 pscbe1 = 4.866e+08
 + pscbe2 = 2.8e-07 pvag = -0.888 rdsw = 202.1 prwg = 1.2
 + prwb = 0 wr = p_wr alpha0 = 0 alpha1 = 0
 + beta0 = 30 cgdo = '1.254e-10*(1+dcgdo_p_18_rf )' cgbo = 0 cgso = '1.254e-10*(1+dcgso_p_18_rf )'
 + xpart = 0 cf = '1.533e-10*(1+dcf_p_18_rf )' dlc = 7.01e-08 cgsl = '2e-11*(1+dcgsl_p_18_rf )'
 + cgdl = '2e-11*(1+dcgdl_p_18_rf )' ckappa = 0.6 clc = 1e-07 cle = 0.6
 + dwc = 2.3e-07 vfbcv = -1 noff = 1 voffcv = 0
 + acde = 1 moin = 15 noia = 3.57456993317604e+18 noib = 2.5e+03
 + noic = 2.6126e-11 em = 4.1e+07 af = 1 ef = 1.1388
 + kf = 0 lmin = 1.8e-07 lmax = 1.805e-07 wmin = 5e-06
 + wmax = 1.05e-04 xl = '-2e-09+ dxl_p_18_rf' xw = '0+ dxw_p_18_rf' js = 3e-06
 + jsw = 4.12e-11 cj = '0.00114*(1+dcj_p_18_rf)' mj = 0.395 pb = 0.762
 + cjsw = '1.74e-10*(1+dcjsw_p_18_rf)' mjsw = 0.324 tnom = 25 ute = -0.4484
 + kt1 = -0.2194 kt1l = -8.204e-09 kt2 = -0.009487 ua1 = 4.571e-09
 + ub1 = -6.026e-18 uc1 = -0.0985 at = 1.203e+04 prt = 0
 + xti = 3 ww = 1.236e-14 lw = -2.873e-16 ll = 6.635e-15
 + wl = 0 wln = 1 wwn = 1 wwl = 0
 + lln = 1 lwn = 1 lwl = 0 llc = -1.31e-14
 + lwc = 0 lwlc = 0 wlc = 0 wwc = 0
 + wwlc = 0 lvth0 = '0.0057+ dlvth0_p_18_rf' wvth0 = '-0.0148+ dwvth0_p_18_rf' lu0 = -3
 + lnfactor = 0.03 pvth0 = '0.0031+ dpvth0_p_18_rf' lnlx = -1.584e-08 wrdsw = 10.07
 + weta0 = 0 wetab = 0 wpclm = 0 wua = 2.7e-09
 + lua = -2.37e-10 pua = 5.855e-11 wub = 0 lub = 0
 + pub = 0 wuc = 0 luc = 0 puc = 0
 + wvoff = -0.009816 lvoff = -0.0009871 pvoff = -9.833e-05 wa0 = -0.04807
 + la0 = -0.281 pa0 = 0.08661 wags = -0.04177 lags = 0.04454
 + pags = -0.04076 wketa = 0 lketa = -0.012 pketa = 0
 + wute = -0.2682 lute = 0 pute = 0 wvsat = -1.42e+04
 + lvsat = 0 pvsat = '-350+ dpvsat_p_18_rf' lpdiblc2 = 0.003012 wat = -6405
 + wprt = 216.6 n = 1 php = 0.665 cta = 0.001
 + ctp = 0.000753 pta = 0.00155 ptp = 0.00124 acm = 3
 + ldif = 8e-08 rsh = 8 rd = 0 rsc = 0
 + rdc = 0 hdif = 2.6e-07 rs = 0
  **warning** (C:\synopsys\Hspice_A-2008.03\Models\.\core_rf_v2d5.mdl:393)  model b63            }device geometries will not be checked against the limits set bylmin, lmax, wmin and wmax. To enable this check, add a period(.)to the model name(i.e. enable model selector).
 .ends
 *
 *
 *
 *
 **    ############################################
 *     #                                          #
 *     # 018rfcmos 1.8v pmos scalable with length #
 *     # hspice model                             #            
 *     #                                          #  
 *     ############################################
 *
 *
 .subckt p_po7w500_18_rf 1 2 3 4 l=0.5u
 *
 .param l_um='l*1e6'
 *
 * #### define bsim3v3 model variable #####
 *
 .param p_nlx='(616.3333-1840*l_um+2266.6670*(l_um*l_um))*1e-9'
 .param p_pclm='2.7030-0.6375/l_um+0.1313/(l_um*l_um)'
 *
 * #### define rf extension model variable #####
 *
 .param p_rg='72.7967-25.7375/l_um+2.8321/(l_um*l_um)'
 .param p_cd='(15.8033+4.660*l_um-8.9333*(l_um*l_um))*1e-15'
 .param p_cgs='(3.7967-18.190*l_um+36.7333*(l_um*l_um))*1e-15'
 .param p_ld=9e-11
 .param p_ls=9e-11
 .param p_djdb_a='(4.25*((7+1)/2))*1e-12'
 .param p_djdb_p='(1.7*((7+1)/2)+5)*1e-6'
 .param p_djdb_g='(5*7)*1e-6'
 .param p_djsb_a='(4.25*((7+1)/2))*1e-12'
 .param p_djsb_p='(1.7*((7+1)/2)+5)*1e-6'
 .param p_djsb_g='(5*7)*1e-6'
 .param p_rsub1='157.35-17.0875/l_um+1.3563/(l_um*l_um)'
 .param p_rsub2=1
 .param p_rsub3=1
 *
 * --------- gate network ------------------------------
 cgs_ext 21 30 'p_cgs*(1+dcgs_p_18_rf)'
 rgate 2 21 'p_rg*(1+drgate_p_18_rf)'
 *
 * --------- drain network -----------------------------
 ldrain 1 11 p_ld
 lsource 30 3 p_ls
 cd 11 30 'p_cd*(1+dcd_p_18_rf)'
 *
 * --------- substrate network -------------------------
 * diodes are for p-type mos transistors
 *
 djdb_area 11 12
 + bsim_diode_area
 + area = p_djdb_a
 djdb_perim 11 12
 + bsim_diode_perim
 + area = p_djdb_p
 djdb_swg 11 12
 + bsim_diode_swg
 + area = p_djdb_g
 *
 djsb_area 30 31
 + bsim_diode_area
 + area = p_djsb_a
 djsb_perim 30 31
 + bsim_diode_perim
 + area = p_djsb_p
 djsb_swg 30 31
 + bsim_diode_swg
 + area = p_djsb_g
 *
 rsub2 12 40 p_rsub2
 rsub3 31 40 p_rsub3
 rsub1 40 4 p_rsub1
 *
 * --------- ideal mos transistor ----------------------
 main 11 21 30 40
 + bsim_mos_transistor
 + l = l
 + w = 5u
 + ad = 0
 + as = 0
 + pd = 0
 + ps = 0
 + m = 7
 *
 * -------- diodes & pmosfet spice parameters ------------
 *
 .model bsim_diode_area d
 + cj0 = '0.00114*(1+ dcj_p_18_rf  )'  vj = 0.762  m = 0.395  is = 3e-06  n = 1
 *
 .model bsim_diode_perim d
 + cj0 = '1.74e-10*(1+ dcjsw_p_18_rf)'  vj = 0.665  m = 0.324  is = 4.12e-11  n = 1
 *
 .model bsim_diode_swg d
 + cj0 = '4.2e-10*(1+ dcjgate_p_18_rf)'  vj = 0.665  m = 0.324  is = 4.12e-11  n = 1
 *
 .model bsim_mos_transistor pmos
 + level = 49 mobmod = 3 version = 3.2 capmod = 2
 + binunit = 1 nqsmod = 0 noimod = 2 tox = '4.2e-09+dtox_p_18_rf'
 + toxm = 4.2e-09 xj = 1e-07 nch = 6.131e+17 ngate = 1e+23
 + vth0 = '-0.4325+dvth0_p_18_rf' k1 = 0.5704 k2 = 0.006973 k3 = -2.833
 + k3b = 1.326 w0 = -1.943e-07 nlx = p_nlx dvt0 = 0.4885
 + dvt1 = 0.07578 dvt2 = 0.1287 dvt0w = -0.1261 dvt1w = 2.479e+04
 + dvt2w = 0.6915 lint = -1.041e-08 wint = -1.525e-07 dwg = -1.151e-07
 + dwb = -1.039e-07 u0 = '113+ du0_p_18_rf' ua = 1.54e-09 ub = 6.46e-20
 + uc = -0.09587 vsat = 4.55e+04 a0 = 1.35 ags = 0.3818
 + b0 = -3.088e-07 b1 = 0 keta = 0.01044 a1 = 0
 + a2 = 1 voff = -0.1073 nfactor = 0.984 cit = -0.001067
 + cdsc = 0.0007578 cdscd = 0 cdscb = 0.0001 eta0 = 1.071
 + etab = -0.9291 dsub = 1.919 pclm = p_pclm pdiblc1 = 0.005
 + pdiblc2 = 0.01401 pdiblcb = 0 drout = 1.457 pscbe1 = 4.866e+08
 + pscbe2 = 2.8e-07 pvag = 1.162 rdsw = 202.1 prwg = 0
 + prwb = 0 wr = 1 alpha0 = 0 alpha1 = 0
 + beta0 = 30 cgdo = '1.254e-10*(1+dcgdo_p_18_rf )' cgbo = 0 cgso = '1.254e-10*(1+ dcgso_p_18_rf)'
 + xpart = 0 cf = '1.533e-10*(1+dcf_p_18_rf)' dlc = 7.01e-08 cgsl = '2e-11*(1+ dcgsl_p_18_rf)'
 + cgdl = '2e-11*(1+dcgdl_p_18_rf)' ckappa = 0.6 clc = 1e-07 cle = 0.6
 + dwc = 0 vfbcv = -1 noff = 1 voffcv = 0
 + acde = 1 moin = 15 noia = 3.57456993317604e+18 noib = 2.5e+03
 + noic = 2.6126e-11 em = 4.1e+07 af = 1 ef = 1.1388
 + kf = 0 lmin = 2e-07 lmax = 5e-07 wmin = 5e-06
 + wmax = 3.5e-05 xl = '-2e-09+dxl_p_18_rf' xw = '0+ dxw_p_18_rf' js = 3e-06
 + jsw = 4.12e-11 cj = '0.00114*(1+ dcj_p_18_rf  )' mj = 0.395 pb = 0.762
 + cjsw = '1.74e-10*(1+ dcjsw_p_18_rf  )' mjsw = 0.324 tnom = 25 ute = -0.4484
 + kt1 = -0.2194 kt1l = -8.204e-09 kt2 = -0.009487 ua1 = 4.571e-09
 + ub1 = -6.026e-18 uc1 = -0.0985 at = 1.203e+04 prt = 0
 + xti = 3 ww = 1.236e-14 lw = -2.873e-16 ll = 6.635e-15
 + wl = 0 wln = 1 wwn = 1 wwl = 0
 + lln = 1 lwn = 1 lwl = 0 llc = -1.31e-14
 + lwc = 0 lwlc = 0 wlc = 0 wwc = 0
 + wwlc = 0 lvth0 = '0.0057+dlvth0_p_18_rf' wvth0 = '-0.0148+dwvth0_p_18_rf' lu0 = -3
 + lnfactor = 0.03 pvth0 = '0.0031+dpvth0_p_18_rf' lnlx = -1.584e-08 wrdsw = 10.07
 + weta0 = 0 wetab = 0 wpclm = 0 wua = 2.7e-09
 + lua = -2.37e-10 pua = 5.855e-11 wub = 0 lub = 0
 + pub = 0 wuc = 0 luc = 0 puc = 0
 + wvoff = -0.009816 lvoff = -0.0009871 pvoff = -9.833e-05 wa0 = -0.04807
 + la0 = -0.281 pa0 = 0.08661 wags = -0.04177 lags = 0.04454
 + pags = -0.04076 wketa = 0 lketa = -0.012 pketa = 0
 + wute = -0.2682 lute = 0 pute = 0 wvsat = -1.42e+04
 + lvsat = 0 pvsat = '-350+dpvsat_p_18_rf' lpdiblc2 = 0.003012 wat = -6405
 + wprt = 216.6 n = 1 php = 0.665 cta = 0.001
 + ctp = 0.000753 pta = 0.00155 ptp = 0.00124 acm = 3
 + ldif = 8e-08 rsh = 8 rd = 0 rsc = 0
 + rdc = 0 hdif = 2.6e-07 rs = 0
  **warning** (C:\synopsys\Hspice_A-2008.03\Models\.\core_rf_v2d5.mdl:537)  model b63            }device geometries will not be checked against the limits set bylmin, lmax, wmin and wmax. To enable this check, add a period(.)to the model name(i.e. enable model selector).
 .ends
 * 
 .endl tt
 .lib 'io_rf_v2d4.lib' tt                          * tt, ff, ss, fnsp, snfp

 .param
 *
 + dcgs_n_33_rf=0
 + drgate_n_33_rf=0
 + dcd_n_33_rf=0
 + dcj_n_33_rf=0.0000e+00
 + dcjsw_n_33_rf=0.0000e+00
 + dcjgate_n_33_rf=0.0000e+00
 + dcf_n_33_rf=0.0000e+00
 *
 + dtox_n_33_rf=0
 + dlint_n_33_rf=0
 + dwint_n_33_rf=0
 + dvth0_n_33_rf=0
 + dcgdo_n_33_rf=0
 + dcgso_n_33_rf=0
 *
 + dcgs_p_33_rf=0
 + drgate_p_33_rf=0
 + dcd_p_33_rf=0
 + dcj_p_33_rf=0.0000e+00
 + dcjsw_p_33_rf=0.0000e+00
 + dcjgate_p_33_rf=0.0000e+00
 + dcf_p_33_rf=0.0000e+00
 *
 + dtox_p_33_rf=0
 + dlint_p_33_rf=0
 + dwint_p_33_rf=0
 + dvth0_p_33_rf=0
 + dcgdo_p_33_rf=0
 + dcgso_p_33_rf=0
 .include './io_rf_v2d4.mdl'
 *     ############################################
 *     #                                          #
 *     #  018rfcmos 3.3v nmos scalable with nf    #
 *     #  hspice model                            #
 *     #                                          #  
 *     ############################################
 *
 *
 .subckt n_l34w500_33_rf 1 2 3 4 nf=21
 *
 * #### define rf extension model varable #####
 *
 .param p_rg='-7.0913+216.04/nf-411.06/(nf*nf)'
 .param p_cd='(0.306+0.1838*nf+0.0049*(nf*nf))*1e-15'
 .param p_cgs=2e-15
 .param p_ld=1e-11
 .param p_ls=6e-11
 .param p_djdb_a='(4.25*((nf+1)/2))*1e-12'
 .param p_djdb_p='(1.7*((nf+1)/2)+5)*1e-6'
 .param p_djdb_g='(5*nf)*1e-6'
 .param p_djsb_a='(4.25*((nf+1)/2))*1e-12'
 .param p_djsb_p='(1.7*((nf+1)/2)+5)*1e-6'
 .param p_djsb_g='(5*nf)*1e-6'
 .param p_rsub1='70.9+224.53/nf-396.9/(nf*nf)'
 .param p_rsub2=2
 .param p_rsub3=2
 *
 * --------- gate network ------------------------------
 cgs_ext 21 30 'p_cgs*(1+dcgs_n_33_rf)'
 rgate 2 21 'p_rg*(1+drgate_n_33_rf)'
 *
 * --------- drain network -----------------------------
 ldrain 1 11 p_ld
 lsource 30 3 p_ls
 cd 11 30 'p_cd*(1+dcd_n_33_rf)'
 *
 * --------- substrate network -------------------------
 *
 djdb_area 12 11
 + bsim_diode_area
 + area = p_djdb_a
 djdb_perim 12 11
 + bsim_diode_perim
 + area = p_djdb_p
 djdb_swg 12 11
 + bsim_diode_swg
 + area = p_djdb_g
 *
 djsb_area 31 30
 + bsim_diode_area
 + area = p_djsb_a
 djsb_perim 31 30
 + bsim_diode_perim
 + area = p_djsb_p
 djsb_swg 31 30
 + bsim_diode_swg
 + area = p_djsb_g
 *
 *
 rsub2 12 40 p_rsub2
 rsub3 31 40 p_rsub3
 rsub1 40 4 p_rsub1
 *
 * --------- ideal mos transistor ----------------------
 main 11 21 30 40
 + bsim_mos_transistor
 + l = 3.4e-07
 + w = 5e-06
 + ad = 0
 + as = 0
 + pd = 0
 + ps = 0
 + m = nf
 *

 .model bsim_diode_area d
 + cj0 = '0.0007673*(1+dcj_n_33_rf )'  vj = 0.7131  m = 0.3299 is = 1e-05 n = 1
 *
 .model bsim_diode_perim d
 + cj0 = '1.089e-10*(1+ dcjsw_n_33_rf)'  vj = 0.7131 m = 0.1037 is = 5.1e-11 n = 1
 *
 .model bsim_diode_swg d
 + cj0 = '2.9e-10*(1+dcjgate_n_33_rf)'  vj = 0.7131 m = 0.1037 is = 5.1e-11 n = 1
 *
 .model bsim_mos_transistor nmos
 + level = 49  version = 3.2 mobmod = 1 binunit = 2 
 + capmod = 3 nqsmod = 0 tox = '7e-09+ dtox_n_33_rf' xj = 2.5e-07
 + nch = 1.7e+17 rsh = 8 lint = '0+ dlint_n_33_rf' wint = '0+ dwint_n_33_rf'
 + dwg = 3.553e-15 dwb = 6.2e-09 vth0 = '0.5924+dvth0_n_33_rf' k1 = 0.7138
 + k2 = -0.02583 k3 = 62 dvt0 = 4.75 dvt1 = 0.634
 + dvt2 = -0.1139 dvt0w = 0.15 dvt1w = 5.95e+05 dvt2w = 0
 + nlx = 1.372e-07 w0 = 5.68e-06 k3b = 32 vsat = 1.052e+05
 + ua = -4.855e-10 ub = 2.265e-18 uc = 5.518e-11 u0 = 0.03913
 + a0 = 0.651 keta = 0.005 a1 = 0.1 a2 = 0.99 ags = 0.06
 + b0 = 2e-08 b1 = 9e-07 voff = -0.1361 nfactor = 1
 + cit = 0 cdsc = 0.00024 cdscb = 0 cdscd = 0
 + eta0 = 0.02 etab = -0.0015 dsub = 0.201 pclm = 1.21
 + pdiblc1 = 0.025 pdiblc2 = 0.002 pdiblcb = 0 drout = 0.46
 + pscbe1 = 4.04e+08 pscbe2 = 1e-05 pvag = 0.2 delta = 0.02
 + rdsw = 495.9 prwb = 0.05715 prwg = 0.088 wr = 1.01
 + alpha0 = 0 alpha1 = 0 beta0 = 30 cgdo = '2.7e-10*(1+dcgdo_n_33_rf)'
 + cgso = '2.7e-10*(1+dcgso_n_33_rf)' cgbo = 0 xpart = 0 cf = '1.392e-10*(1+dcf_n_33_rf)'
 + xl = 2.5e-08 xw = 0 cj = '0.0007673*(1+dcj_n_33_rf )' mj = 0.3299
 + pb = 0.7131 cjsw = '1.089e-10*(1+dcjsw_n_33_rf )' mjsw = 0.1037 js = 1e-05
 + jsw = 5.1e-11 tnom = 25 kt1 = -0.3166 kt2 = -0.04461
 + at = 500 ute = -1.601 ua1 = 4.203e-11 ub1 = 3.8e-19
 + uc1 = 2.8e-11 kt1l = 0 prt = -271.3 lln = 1
 + lwn = 1 wln = 1 wwn = 1 ll = 1.214e-14 lw = 0
 + lwl = -2.886e-22 wl = 0 ww = -2.01e-16 wwl = -1.502e-21
 + acm = 3 ldif = 0 hdif = 3.2e-07 lnfactor = 1e-07
 + lu0 = 0 lvsat = -0.0045 lua = 0 lub = 0 php = 0.4347
 + cta = 0.001082 ctp = 0.0007482 pta = 0.001822 ptp = 0.002009
 + elm = 5 cjgate = '2.9e-10*(1+dcjgate_n_33_rf )' tlevc = 1 noff = 50 dwc = 0
 + lmin = 3.4e-07 lmax = 3.405e-07 wmin = 5e-06 wmax = 1.05e-04 
 + noimod= 2 noia= 1.2386e+21 noib= 44531.5473
 + noic= -1.05e-14  ef= 0.9396  em= 2063059.9427
  **warning** (C:\synopsys\Hspice_A-2008.03\Models\.\io_rf_v2d4.mdl:105)  model b63            }device geometries will not be checked against the limits set bylmin, lmax, wmin and wmax. To enable this check, add a period(.)to the model name(i.e. enable model selector).
 *
 * ##### end of rf nmosfet structure #####
 *
 .ends
 *
 *     ############################################
 *     #                                          #
 *     # 018rfcmos 3.3v nmos scalable with length #
 *     # hspice model                             #
 *     #                                          #
 *     ############################################
 *
 *
 .subckt n_po7w500_33_rf 1 2 3 4 l=0.8u
 *
 .param l_um='l*1e6'
 *
 * #### define rf extension model varable #####
 *
 .param p_rg='33.476-13.353/l_um+2.0572/(l_um*l_um)'
 .param p_cd='(20.609-34.728*l_um+19.022*(l_um*l_um))*1e-15'
 .param p_cgs=2e-15
 .param p_ld=1e-11
 .param p_ls=6e-11
 .param p_djdb_a='(4.25*((7+1)/2))*1e-12'
 .param p_djdb_p='(1.7*((7+1)/2)+5)*1e-6'
 .param p_djdb_g='(5*7)*1e-6'
 .param p_djsb_a='(4.25*((7+1)/2))*1e-12'
 .param p_djsb_p='(1.7*((7+1)/2)+5)*1e-6'
 .param p_djsb_g='(5*7)*1e-6'
 .param p_rsub1=70
 .param p_rsub2=2
 .param p_rsub3=2
 *
 * --------- gate network ------------------------------
 cgs_ext 21 30 'p_cgs*(1+dcgs_n_33_rf)'
 rgate 2 21 'p_rg*(1+drgate_n_33_rf)'
 *
 * --------- drain network -----------------------------
 ldrain 1 11 p_ld
 lsource 30 3 p_ls
 cd 11 30 'p_cd*(1+dcd_n_33_rf)'
 *
 * --------- substrate network -------------------------
 *
 djdb_area 12 11
 + bsim_diode_area
 + area = p_djdb_a
 djdb_perim 12 11
 + bsim_diode_perim
 + area = p_djdb_p
 djdb_swg 12 11
 + bsim_diode_swg
 + area = p_djdb_g
 *
 djsb_area 31 30
 + bsim_diode_area
 + area = p_djsb_a
 djsb_perim 31 30
 + bsim_diode_perim
 + area = p_djsb_p
 djsb_swg 31 30
 + bsim_diode_swg
 + area = p_djsb_g
 *
 rsub2 12 40 p_rsub2
 rsub3 31 40 p_rsub3
 rsub1 40 4 p_rsub1
 *
 * --------- ideal mos transistor ----------------------
 main 11 21 30 40
 + bsim_mos_transistor
 + l = l
 + w = 5u
 + ad = 0
 + as = 0
 + pd = 0
 + ps = 0
 + m = 7
 *
 * -------- diodes & nmosfet spice parameters ------------
 *
 .model bsim_diode_area d
 + cj0 = '0.0007673*(1+ dcj_n_33_rf )' vj = 0.7131 m = 0.3299 is = 1e-05 n = 1
 *
 .model bsim_diode_perim d
 + cj0 = '1.089e-10*(1+dcjsw_n_33_rf )' vj = 0.7131 m = 0.1037 is = 5.1e-11 n = 1
 *
 .model bsim_diode_swg d
 + cj0 = '2.9e-10*(1+ dcjgate_n_33_rf )' vj = 0.7131 m = 0.1037 is = 5.1e-11 n = 1
 *
 .model bsim_mos_transistor nmos
 + level = 49 version = 3.2 mobmod = 1 binunit = 2
 + capmod = 3 nqsmod = 0 tox = '7e-09+dtox_n_33_rf' xj = 2.5e-07
 + nch = 1.7e+17 rsh = 8 lint = '0+ dlint_n_33_rf' wint = '0+ dwint_n_33_rf' dwg = 3.553e-15
 + dwb = 6.2e-09 vth0 = '0.6124+dvth0_n_33_rf' k1 = 0.7138 k2 = -0.02583 k3 = 62
 + dvt0 = 4.75 dvt1 = 0.634 dvt2 = -0.1139 dvt0w = 0.15
 + dvt1w = 5.95e+05 dvt2w = 0 nlx = 1.372e-07 w0 = 5.68e-06
 + k3b = 32 vsat = 1.052e+05 ua = -4.855e-10 ub = 2.065e-18
 + uc = 5.518e-11 u0 = 0.03913 a0 = 1.042 keta = 0.005
 + a1 = 0.1 a2 = 0.99 ags = 0.1603 b0 = 2e-08
 + b1 = 9e-07 voff = -0.1361 nfactor = 1 cit = 0
 + cdsc = 0.00024 cdscb = 0 cdscd = 0 eta0 = 0.02
 + etab = -0.0015 dsub = 0.201 pclm = 1.01 pdiblc1 = 0.025
 + pdiblc2 = 0.002 pdiblcb = 0 drout = 0.46 pscbe1 = 4.04e+08
 + pscbe2 = 1e-05 pvag = 0 delta = 4.441e-19 rdsw = 495.9
 + prwb = 0.05715 prwg = 0.088 wr = 1.01 alpha0 = 0
 + alpha1 = 0 beta0 = 30 cgdo = '2.7e-10*(1+dcgdo_n_33_rf)' cgso = '2.7e-10*(1+dcgso_n_33_rf )'
 + cgbo = 0 xpart = 0 cf = '1.392e-10*(1+dcf_n_33_rf)' xl = 2.5e-08
 + xw = 0 cj = '0.0007673*(1+ dcj_n_33_rf )' mj = 0.3299 pb = 0.7131
 + cjsw = '1.089e-10*(1+ dcjsw_n_33_rf )' mjsw = 0.1037 js = 1e-05 jsw = 5.1e-11
 + tnom = 25 kt1 = -0.3166 kt2 = -0.04461 at = 500
 + ute = -1.601 ua1 = 4.203e-11 ub1 = 3.8e-19 uc1 = 2.8e-11
 + kt1l = 0 prt = -271.3 lln = 1 lwn = 1 wln = 1
 + wwn = 1 ll = 1.214e-14 lw = 0 lwl = -2.886e-22 wl = 0
 + ww = -2.01e-16 wwl = -1.502e-21 acm = 3 ldif = 0
 + hdif = 3.2e-07 lnfactor = 1e-07 lu0 = 0 lvsat = -0.0045
 + lua = 0 lub = 0 php = 0.4347 cta = 0.001082
 + ctp = 0.0007482 pta = 0.001822 ptp = 0.002009 elm = 5
 + cjgate = '2.9e-10*(1+ dcjgate_n_33_rf )' tlevc = 1 noff = 50 dwc = 1e-07
 + lmin = 3.4e-07 lmax = 8e-07 wmin = 5e-06 wmax = 3.5e-05
 + noimod= 2 noia= 1.2386e+21 noib= 44531.5473
 + noic= -1.05e-14  ef= 0.9396  em= 2063059.9427
  **warning** (C:\synopsys\Hspice_A-2008.03\Models\.\io_rf_v2d4.mdl:228)  model b63            }device geometries will not be checked against the limits set bylmin, lmax, wmin and wmax. To enable this check, add a period(.)to the model name(i.e. enable model selector).
 *
 * ##### end of rf nmosfet structure #####
 *
 .ends
 *
 *     ############################################
 *     #                                          #
 *     # 018rfcmos 3.3v pmos scalable with nf     #
 *     # hspice model                             #
 *     #                                          #
 *     ############################################
 *
 *
 .subckt p_l34w500_33_rf 1 2 3 4 nf=21
 *
 *
 * #### define rf extension model varable #####
 *
 .param p_rg='2.9978+41.357/nf-36.796/(nf*nf)'
 .param p_cd='(9.4819-0.5777*nf+0.0508*(nf*nf))*1e-15'
 .param p_cgs=1e-15
 .param p_ld=1e-11
 .param p_ls=6e-11
 .param p_djdb_a='(4.25*((nf+1)/2))*1e-12'
 .param p_djdb_p='(1.7*((nf+1)/2)+5)*1e-6'
 .param p_djdb_g='(5*nf)*1e-6'
 .param p_djsb_a='(4.25*((nf+1)/2))*1e-12'
 .param p_djsb_p='(1.7*((nf+1)/2)+5)*1e-6'
 .param p_djsb_g='(5*nf)*1e-6'
 .param p_rsub1='20.979+437.18/nf-705.05/(nf*nf)'
 .param p_rsub2=2
 .param p_rsub3=2
 *
 * --------- gate network ------------------------------
 cgs_ext 21 30 'p_cgs*(1+dcgs_p_33_rf)'
 rgate 2 21 'p_rg*(1+drgate_p_33_rf)'
 *
 * --------- drain network -----------------------------
 ldrain 1 11 p_ld
 lsource 30 3 p_ls
 cd 11 30 'p_cd*(1+dcd_p_33_rf)'
 *
 * --------- substrate network -------------------------
 * diodes are for p-type mos transistors
 *
 djdb_area 11 12
 + bsim_diode_area
 + area = p_djdb_a
 djdb_perim 11 12
 + bsim_diode_perim
 + area = p_djdb_p
 djdb_swg 11 12
 + bsim_diode_swg
 + area = p_djdb_g
 *
 djsb_area 30 31
 + bsim_diode_area
 + area = p_djsb_a
 djsb_perim 30 31
 + bsim_diode_perim
 + area = p_djsb_p
 djsb_swg 30 31
 + bsim_diode_swg
 + area = p_djsb_g
 *
 rsub2 12 40 p_rsub2
 rsub3 31 40 p_rsub3
 rsub1 40 4 p_rsub1
 *
 * --------- ideal mos transistor ----------------------
 main 11 21 30 40
 + bsim_mos_transistor
 + l = 3.4e-7
 + w = 5e-6
 + ad = 0
 + as = 0
 + pd = 0
 + ps = 0
 + m = nf
 *
 .model bsim_diode_area d
 + cj0 = '0.0012*(1+ dcj_p_33_rf)' mjsw = 0.4097 vj = 0.7618 is = 9e-05 n = 1
 *
 .model bsim_diode_perim d
 + cj0 = '2.243e-10*(1+ dcjsw_p_33_rf)' vj = 0.7618 mjsw = 0.4745 is = 4.9e-12 n = 1
 *
 .model bsim_diode_swg d
 + cj0 = '4.2e-10*(1+dcjgate_p_33_rf)' vj = 0.7618 mjsw = 0.4745 is = 4.9e-12 n = 1
 *
 .model bsim_mos_transistor pmos
 + level = 49 version = 3.2 mobmod = 1 capmod = 3
 + nqsmod = 0 tox = '7e-09+dtox_p_33_rf' xj = 1.8e-07 nch = 4.31e+17
 + rsh = 8 lint = '2.24e-08+dlint_p_33_rf' wint = '3.361e-08+dwint_p_33_rf' dwg = -1.437e-08
 + dwb = 5.984e-09 vth0 = '-0.7104+dvth0_p_33_rf' k1 = 0.7667 k2 = 0.05429
 + k3 = 2.089 dvt0 = 7.395 dvt1 = 0.6635 dvt2 = 0.007805
 + dvt0w = 1.797 dvt1w = 2.876e+06 dvt2w = 0.1026 nlx = 5e-08
 + w0 = 2.125e-07 k3b = 1.003 vsat = 9.09e+04 ua = -8e-13
 + ub = 1.82e-18 uc = -3.65e-11 u0 = 0.008064 a0 = 0.8
 + keta = -0.01035 a1 = 0.01 a2 = 0.99 ags = 0.3138
 + b0 = 0 b1 = 1e-06 voff = -0.1239 nfactor = 0.4964
 + cit = 0.0005334 cdsc = 0.003166 cdscb = 0.002463 cdscd = 0
 + eta0 = 0.2 etab = -0.01893 dsub = 0.9052 pclm = 0.8
 + pdiblc1 = 0.03524 pdiblc2 = 0.02018 pdiblcb = 0.1478 drout = 0.5
 + pscbe1 = 4.643e+08 pscbe2 = 1.07e-05 pvag = 0 delta = 0.02
 + rdsw = 467 prwb = 0 prwg = 0 wr = 1.1
 + alpha0 = 0 beta0 = 30 cgdo = '2.6e-10*(1+dcgdo_p_33_rf)' cgso = '2.6e-10*(1+dcgso_p_33_rf)'
 + cgbo = 0 xpart = 0 cf = '1.392e-10*(1+dcf_p_33_rf)' xl = -2e-08
 + xw = 0 cj = '0.0012*(1+dcj_p_33_rf)' mj = 0.4097 pb = 0.7618 cjsw = '2.243e-10*(1+dcjsw_p_33_rf)'
 + mjsw = 0.4745 js = 9e-05 jsw = 4.9e-12 tnom = 25
 + kt1 = -0.3346 kt2 = -0.05747 at = 4.95e+04 ute = -1.128
 + ua1 = 1.402e-09 ub1 = -3.417e-18 uc1 = -1.393e-10 kt1l = 1e-08
 + prt = 0 lln = 1 lwn = 1 wln = 1 wwn = 1
 + ll = 0 lw = 0 lwl = 0 wl = 0
 + ww = 0 wwl = 0 lmin = 3.4e-07 lmax = 3.405e-07
 + wmin = 5e-06 wmax = 1.05e-04 lua = 0 lub = 0
 + wua = 0 lpclm = 0 lvth0 = 0 php = 0.9297
 + cta = 0.0009969 ctp = 0.0007119 pta = 0.001504 ptp = 0.001216
 + elm = 10 tlevc = 1 acm = 3 hdif = 3.2e-07
 + lu0 = 0.0004 wvsat = 0 lvsat = 0 wu0 = 0.001
 + voffcv = 0 dwc = 1e-07 noff = 20
 + noimod = 2 noia= 4.8632e+19  noib= 142700
 + noic= 1.04e-11  ef= 1.117  em= 5015000
  **warning** (C:\synopsys\Hspice_A-2008.03\Models\.\io_rf_v2d4.mdl:346)  model b63            }device geometries will not be checked against the limits set bylmin, lmax, wmin and wmax. To enable this check, add a period(.)to the model name(i.e. enable model selector).
 .ends
 *
 *     ############################################
 *     #                                          #
 *     # 018rfcmos 3.3v pmos scalable with length #
 *     # hspice model                             #
 *     #                                          #
 *     ############################################
 *
 *
 .subckt p_po7w500_33_rf 1 2 3 4 l=0.8u
 *
 *
 .param l_um='l*1e6'
 *
 * #### define rf extension model varable #####
 *
 .param p_rg='192.37-151.74/l_um+30.28/(l_um*l_um)'
 .param p_cd='(33.148-64.815*l_um+37.037*(l_um*l_um))*1e-15'
 .param p_cgs=1e-15
 .param p_ld=1e-11
 .param p_ls=6e-11
 .param p_djdb_a='(4.25*((7+1)/2))*1e-12'
 .param p_djdb_p='(1.7*((7+1)/2)+5)*1e-6'
 .param p_djdb_g='(5*7)*1e-6'
 .param p_djsb_a='(4.25*((7+1)/2))*1e-12'
 .param p_djsb_p='(1.7*((7+1)/2)+5)*1e-6'
 .param p_djsb_g='(5*7)*1e-6'
 .param p_rsub1=70
 .param p_rsub2=2
 .param p_rsub3=2
 *
 * --------- gate network ------------------------------
 cgs_ext 21 30 'p_cgs*(1+dcgs_p_33_rf)'
 rgate 2 21 'p_rg*(1+drgate_p_33_rf)'
 *
 * --------- drain network -----------------------------
 ldrain 1 11 p_ld
 lsource 30 3 p_ls
 cd 11 30 'p_cd*(1+dcd_p_33_rf)'
 *
 * --------- substrate network -------------------------
 * diodes are for p-type mos transistors
 *
 djdb_area 11 12
 + bsim_diode_area
 + area = p_djdb_a
 djdb_perim 11 12
 + bsim_diode_perim
 + area = p_djdb_p
 djdb_swg 11 12
 + bsim_diode_swg
 + area = p_djdb_g
 *
 djsb_area 30 31
 + bsim_diode_area
 + area = p_djsb_a
 djsb_perim 30 31
 + bsim_diode_perim
 + area = p_djsb_p
 djsb_swg 30 31
 + bsim_diode_swg
 + area = p_djsb_g
 *
 rsub2 12 40 p_rsub2
 rsub3 31 40 p_rsub3
 rsub1 40 4 p_rsub1
 *
 * --------- ideal mos transistor ----------------------
 main 11 21 30 40
 + bsim_mos_transistor
 + l = l
 + w = 5u
 + ad = 0
 + as = 0
 + pd = 0
 + ps = 0
 + m = 7
 *
 * -------- diodes & pmosfet spice parameters ------------
 *
 .model bsim_diode_area d
 + cj0 = '0.0012*(1+dcj_p_33_rf)' mjsw = 0.4097 vj = 0.7618 is = 9e-05 n = 1
 *
 .model bsim_diode_perim d
 + cj0 = '2.243e-10*(1+dcjsw_p_33_rf)'  vj = 0.7618 mjsw = 0.4745 is = 4.9e-12 n = 1
 *
 .model bsim_diode_swg d
 + cj0 = '4.2e-10*(1+dcjgate_p_33_rf)'  vj = 0.7618 mjsw = 0.4745 is = 4.9e-12 n = 1
 *
 .model bsim_mos_transistor pmos
 + level = 49 version = 3.2 mobmod = 1 capmod = 3 nqsmod = 0 
 + tox = '7e-09+dtox_p_33_rf' xj = 1.8e-07 nch = 4.31e+17 rsh = 8
 + lint = '2.24e-08+dlint_p_33_rf' wint = '3.361e-08+dwint_p_33_rf' dwg = -1.437e-08 dwb = 5.984e-09
 + vth0 = '-0.7104+dvth0_p_33_rf' k1 = 0.7667 k2 = 0.05429 k3 = 2.089 
 + dvt0 = 7.395 dvt1 = 0.6635 dvt2 = 0.007805 dvt0w = 1.797 
 + dvt1w = 2.876e+06 dvt2w = 0.1026 nlx = 5e-08 w0 = 2.125e-07 
 + k3b = 1.003 vsat = 1.209e+05 ua = -8e-13 ub = 1.82e-18
 + uc = -3.65e-11 u0 = 0.008064 a0 = 1.2 keta = -0.01035
 + a1 = 0.01 a2 = 0.99 ags = 0.3138 b0 = 0
 + b1 = 1e-06 voff = -0.1239 nfactor = 0.4964 cit = 0.0005334
 + cdsc = 0.003166 cdscb = 0.002463 cdscd = 0 eta0 = 0.2
 + etab = -0.01893 dsub = 0.9052 pclm = 0.8 pdiblc1 = 0.03524
 + pdiblc2 = 0.02018 pdiblcb = 0.1478 drout = 0.5 pscbe1 = 4.643e+08
 + pscbe2 = 1.07e-05 pvag = 0 delta = 0.02 rdsw = 467
 + prwb = 0 prwg = 0 wr = 1.1 alpha0 = 0
 + beta0 = 30 cgdo = '2.6e-10*(1 + dcgdo_p_33_rf)' cgso = '2.6e-10*(1 + dcgso_p_33_rf)' cgbo = 0
 + xpart = 0 cf = '1.392e-10*(1+ dcf_p_33_rf)' xl = -2e-08 xw = 0
 + cj = '0.0012*(1+ dcj_p_33_rf)' mj = 0.4097 pb = 0.7618 cjsw = '2.243e-10*(1 + dcjsw_p_33_rf)'
 + mjsw = 0.4745 js = 9e-05 jsw = 4.9e-12 tnom = 25
 + kt1 = -0.3346 kt2 = -0.05747 at = 4.95e+04 ute = -1.128
 + ua1 = 1.402e-09 ub1 = -3.417e-18 uc1 = -1.393e-10 kt1l = 1e-08
 + prt = 0 lln = 1 lwn = 1 wln = 1 wwn = 1
 + ll = 0 lw = 0 lwl = 0 wl = 0 ww = 0
 + wwl = 0 lmin = 3.4e-07 lmax = 8e-07 wmin = 5e-06
 + wmax = 3.5e-05 lua = 0 lub = 0 wua = 0 lpclm = 0
 + lvth0 = 0 php = 0.9297 cta = 0.0009969 ctp = 0.0007119
 + pta = 0.001504 ptp = 0.001216 elm = 10 tlevc = 1
 + acm = 3 hdif = 3.2e-07 lu0 = 0.0004 wvsat = 0
 + wu0 = 0.001 voffcv = 0 dwc = 1e-07 noff = 20
 + noimod = 2 noia= 4.8632e+19  noib= 142700
 + noic= 1.04e-11  ef= 1.117  em= 5015000
  **warning** (C:\synopsys\Hspice_A-2008.03\Models\.\io_rf_v2d4.mdl:469)  model b63            }device geometries will not be checked against the limits set bylmin, lmax, wmin and wmax. To enable this check, add a period(.)to the model name(i.e. enable model selector).
 *
 * ##### end of rf pmosfet structure #####
 *
 .ends
 * 
 .endl tt
 .lib 'l_slcr20k_rf_v2d3.lib' typ                  * typ, max, min

 .param
 *
 + dw_l_rf=0
 + dt_l_rf=0
 + drs_l_rf=0
 + dcp_l_rf=0
 + dcox_l_rf=0
 + dls_l_rf=0
 *
 .include './l_slcr20k_rf_v2d3.mdl'
 *     ############################################
 *     #                                          #
 *     #  018rfcmos circular inductor hspice model#
 *     #                                          #  
 *     ############################################
 *
 * //////port 1 connects to top metal (m6)//////////////
 * //////port 2 connects to underpasss metal (m5)///////
 * //////the node 999 connects to ground////////////////
 *
 .subckt l_slcr20k_rf 1 2 999 d=148u n=5.5 w=6u
 *
 *
 .param d_um='(d/2)*1e6'
 .param w_um='w*1e6+ dw_l_rf'
 .param s_um='2- dw_l_rf'
 .param t_um='2* (1+dt_l_rf)'
 *
 *
 *
 .param l_spiral='0.5*(n*3.14159*(2*(2*d_um+w_um)+(2*n-1)*(w_um+s_um)))+(n+0.5)*(w_um+s_um)'
 .param d_plus='(w_um+s_um)*(3*n-2*(n-0.5)-1)*(n+0.5)/(3*(2*n-n-0.5))'
 .param p_lsef='log(2*l_spiral/(w_um+t_um))-0.2'
 .param p_m_neg='0.4418*n'
 .param p_m_d1='log(sqrt(1+(l_spiral/(4*n*d_plus))*(l_spiral/(4*n*d_plus)))+l_spiral/(4*n*d_plus))'
 .param p_m_d2='sqrt(1+(4*n*d_plus/l_spiral)*(4*n*d_plus/l_spiral))-4*n*d_plus/l_spiral'
 .param p_ls='(2*l_spiral*(p_lsef-p_m_neg+0.97*(n-1)*(p_m_d1-p_m_d2))+2923-3700*n+507*n*n)*1e-13'
 .param p_rs='1+0.02*(l_spiral/w_um)+n*(0.34-0.0002273*l_spiral)'
 .param p_cp='(0.0402*(n-0.5)*w_um*w_um)*1e-15'
 .param p_cox='(0.0019725*(2*l_spiral*w_um+3.14159*w_um*w_um))*1e-15'
 .param p_csub1='((0.24+0.098*n)*d_um)*1e-15'
 .param p_csub2='((0.2205+0.055*n)*d_um)*1e-15'
 .param p_rsub1='530+49153/(d_um*n)'
 .param p_rsub2='680+55465/(d_um*n)'
 *
 * --------- equivalent network -------------------
 *
 rs 1 777 'p_rs*(1+drs_l_rf)'
 ls 2 777 'p_ls*(1+dls_l_rf)'
 cp 1 2 'p_cp*(1+dcp_l_rf) * ( 2/s_um)'
 cox1 1 771 'p_cox*(1+dcox_l_rf)'
 cox2 2 881 'p_cox*(1+dcox_l_rf)'
 rsub1 771 999 p_rsub1
 rsub2 881 999 p_rsub2
 csub1 771 999 p_csub1
 csub2 881 999 p_csub2 
 .ends
 * 
 .endl typ
 .lib 'mimcapm_rf_v2d3.lib' typ                    * typ, max, min

 .param
 *
 + dr_mim_rf=0
 + dcox1_mim_rf=0
 + dcox2_mim_rf=0.0000e+00
 + dcn_mim_rf=0.0000e+00
 *
 .include './mimcapm_rf_v2d3.mdl'
 *     #########################################
 *     #                                       #
 *     #  0.18um rfcmos mim_sh hspice model    #
 *     #                                       #  
 *     #########################################
 *
 .subckt mimcapm_rf 1 2 999 nx=1 ny=1 l=20e-6 w=20e-6 

 **********************************************
 .param dt='temper-25'
 .param leb='ny*(l+1.7e-6)+4.3e-6'        
 .param wb='nx*(w+1.7e-6)+4.3e-6'
 .param cn='0.001*(1+dcn_mim_rf)'
 .param cox='5.4478e-6'
 .param n='nx*ny'
 .param cs='n*(l*w*cn+1.5e-10*(l+w))*(1+3e-5*dt+1e-8*dt*dt)'
 .param cox1='(leb*wb*cox+3.382e-11*(leb+wb))/2'
 .param cox2= 'cox1'
 .param rs='2.0667e-2*leb/wb'
 .param k='wb/(wb+2*(1e-4-wb/2-3.25e-5))'
 .param k1='sqrt(1-k*k)'
 .param f='1/(log(2*(1+sqrt(k1))/(1-sqrt(k1))))'
 .param ls='1e-7*leb/f*(0.0074*(leb/wb)+0.2399+0.7363/(leb/wb))'
 * --------- equivalent network -------------------
 *
 c 1 11 'cs*(1.0027-0.0002*v(2,1)+3e-5*v(2,1)*v(2,1))'
 l 11 12 ls
 r 12 2 'rs* (1+dr_mim_rf)'
 c1 11 999 'cox1* (1+dcox1_mim_rf)'
 c2 2 999 'cox2*(1+dcox2_mim_rf)'
 *
 .ends
 * 
 .endl typ
 .lib 'mm180_mimcap_v101.lib' mimcaps_typ          * mimcaps_typ, mimcaps_max, mimcaps_min
 .param 

 +dcm_mimcaps_mm = 0   dcmf_mimcaps_mm = 0  
  
 .include './mm180_mimcap_v101.mdl' 
 *************************************************************************
 * the following subcircuits refer to umc 0.18um mm/rf edr.              *                              
 * spec no: g-02-mixed_mode/rfcmos18-1.8v/3.3v-1p6m-mmc-edr              *
 *************************************************************************

 *****************************************  
 *         mim capacitance               *  
 ***************************************** 
 .subckt mimcaps_mm n2 n1  
 .param w=1e-6 l=1e-6 m=1 cm='1.0e-15+dcm_mimcaps_mm' cmf='0.075e-15+dcmf_mimcaps_mm' 
 +ctc1=40e-06 cvc1=30e-06  temp   = 'temper'
 .param tcoef = '1.0+ctc1*(temp-25.0)'
 c1 n2 n1 '(w*1e6*l*1e6*cm+2*(w*1e6+l*1e6)*cmf)*(1.0+cvc1*abs(v(n1,n2)))*tcoef' m=m

 .ends mimcaps_mm 
  
 .endl  mimcaps_typ 
 .lib 'mm180_reg18bpw_v123.lib' tt                 * tt, ff, ss, fnsp, snfp

 .param  

 *1.8v nmos 
 +  dtox_n_bpw_18_mm      =   0.0000e+00                  dxl_n_bpw_18_mm       =   0.0000e+00                
 +  dxw_n_bpw_18_mm       =   0.0000e+00                  dvth0_n_bpw_18_mm     =   0.0000e+00                
 +  du0_n_bpw_18_mm       =   0.0000e+00                  dlvth0_n_bpw_18_mm    =   0.0000e+00
 +  dwvth0_n_bpw_18_mm    =   0.0000e+00                  dwu0_n_bpw_18_mm      =   0.0000e+00
 +  dpvth0_n_bpw_18_mm    =   0.0000e+00                  dpvsat_n_bpw_18_mm    =   0.0000e+00
 +  dcgdo_n_bpw_18_mm     =   0.0000e+00                  dcgso_n_bpw_18_mm     =   0.0000e+00                
 +  dcj_n_bpw_18_mm       =   0.0000e+00                  dcjsw_n_bpw_18_mm     =   0.0000e+00                
 +  dcjgate_n_bpw_18_mm   =   0.0000e+00  


 .include './mm180_reg18bpw_v123.mdl'   
 ******************************************************************************************
 *         0.18um 1.8v/3.3v mixedmode triple-well technology, 1.8v nmos model               *
 ******************************************************************************************

 .model n_bpw_18_mm nmos
 *****model selectors/controllers*********************************
 +  level     =   4.9000e+01                          version   =   3.2000e+00  
 +  binunit   =   1.0000e+00                          mobmod    =   1.0000e+00                           
 +  capmod    =   2.0000e+00                          nqsmod    =   0.0000e+00                        


 *****process parameters******************************************
 +  tox       =  '4.2000e-09+dtox_n_bpw_18_mm'            toxm      =   4.2000e-09                        
 +  xj        =   1.6000e-07                          nch       =   3.7446e+17                        
 +  rsh       =   8.0000e+00                          ngate     =   1.0000e+23


 *****basic model parameters**************************************
 +  vth0      =  '3.0750e-01+dvth0_n_bpw_18_mm'           k1        =   4.5780e-01                     
 +  k2        =  -2.6380e-02                          k3        =  -1.0880e+01                        
 +  k3b       =   2.3790e-01                          w0        =  -8.8130e-08                        
 +  nlx       =   4.2790e-07                          dvt0      =   4.0420e-01                        
 +  dvt1      =   3.2370e-01                          dvt2      =  -8.6020e-01                        
 +  dvt0w     =   3.8300e-01                          dvt1w     =   6.0000e+05                        
 +  dvt2w     =  -2.5000e-02                          lint      =   1.5870e-08                        
 +  wint      =   1.0220e-08                          dwg       =  -3.3960e-09                        
 +  dwb       =   1.3460e-09                          u0        =  '3.1410e+02+du0_n_bpw_18_mm'                       
 +  ua        =  -9.2010e-10                          ub        =   1.9070e-18
 +  uc        =   4.3550e-11                          vsat      =   7.1580e+04 
 +  a0        =   1.9300e+00                          ags       =   5.0720e-01                        
 +  b0        =   1.4860e-06                          b1        =   9.0640e-06                        
 +  keta      =   1.7520e-02                          a1        =   0.0000e+00                        
 +  a2        =   1.0000e+00                          voff      =  -1.0880e-01                        
 +  nfactor   =   1.0380e+00                          cit       =  -1.5110e-03                        
 +  cdsc      =   2.1750e-03                          cdscd     =  -5.0000e-04                        
 +  cdscb     =   8.2410e-04                          eta0      =   1.0040e-03                        
 +  etab      =  -1.4590e-03                          dsub      =   1.5920e-03                        
 +  pclm      =   1.0910e+00                          pdiblc1   =   3.0610e-03                        
 +  pdiblc2   =   1.0000e-06                          pdiblcb   =   0.0000e+00                        
 +  drout     =   1.5920e-03                          pscbe1    =   4.8660e+08                        
 +  pscbe2    =   2.8000e-07                          pvag      =  -2.9580e-01                        


 *****parameters for asymmetric and bias-dependent rds model******
 +  rdsw      =   4.9050e+00                          prwg      =   0.0000e+00                        
 +  prwb      =   0.0000e+00                          wr        =   1.0000e+00


 *****impact ionization current model parameters******************
 +  alpha0    =   0.0000e+00                          alpha1    =   0.0000e+00                        
 +  beta0     =   3.0000e+01                        


 *****gate-induced drain leakage model parameters*****************


 *****gate dielectric tunneling current model parameters**********


 *****charge and capacitance model parameters*********************
 +  xpart     =   1.0000e+00                          cgso      =  '2.3500e-10+dcgso_n_bpw_18_mm'         
 +  cgdo      =  '2.3500e-10+dcgdo_n_bpw_18_mm'           cgbo      =   0.0000e+00                        
 +  cgsl      =   0.0000e+00                          cgdl      =   0.0000e+00                        
 +  ckappa    =   6.0000e-01                          cf        =   1.5330e-10                        
 +  clc       =   1.0000e-07                          cle       =   6.0000e-01                        
 +  dlc       =   2.9000e-08                          dwc       =   0.0000e+00                        
 +  vfbcv     =  -1.0000e+00                          noff      =   1.0000e+00                        
 +  voffcv    =   0.0000e+00                          acde      =   1.0000e+00                        
 +  moin      =   1.5000e+01                        


 *****high-speed/rf model parameters******************************


 *****flicker and thermal noise model parameters******************


 *****layout-dependent parasitics model parameters****************
 +  lmin      =   1.8000e-07                          lmax      =   5.0000e-05
 +  wmin      =   2.4000e-07                          wmax      =   1.0000e-04
 +  xl        = '-1.0500e-08+dxl_n_bpw_18_mm'             xw        =  '0.0000e-00+dxw_n_bpw_18_mm'           


 *****asymmetric source/drain junction diode model parameters*****
 +  js        =   1.0000e-06                          jsw       =   7.0000e-11                        
 +  cj        =  '1.0300e-03+dcj_n_bpw_18_mm'             mj        =   4.4300e-01                        
 +  pb        =   8.1300e-01                          cjsw      =  '1.3400e-10+dcjsw_n_bpw_18_mm'         
 +  mjsw      =   3.3000e-01                        


 *****temperature dependence parameters***************************
 +  tnom      =   2.5000e+01                          ute       =  -1.2860e+00                        
 +  kt1       =  -2.2550e-01                          kt1l      =  -4.1750e-09                        
 +  kt2       =  -2.5270e-02                          ua1       =   2.1530e-09                        
 +  ub1       =  -2.6730e-18                          uc1       =  -3.8320e-11                        
 +  at        =   1.4490e+04                          prt       =  -1.0180e+01                        
 +  xti       =   3.0000e+00                        


 *****dw and dl parameters****************************************
 +  wl        =   0.0000e+00                          wln       =   1.0000e+00                        
 +  ww        =   7.2620e-16                          wwn       =   1.0000e+00                        
 +  wwl       =   0.0000e+00                          ll        =  -1.0620e-15                        
 +  lln       =   1.0000e+00                          lw        =   2.9960e-15                        
 +  lwn       =   1.0000e+00                          lwl       =   0.0000e+00                        
 +  llc       =  -2.1400e-15                          lwc       =   0.0000e+00                        
 +  lwlc      =   0.0000e+00                          wlc       =   0.0000e+00                        
 +  wwc       =   0.0000e+00                          wwlc      =   0.0000e+00                        


 *****range parameters for model application**********************


 *****other parameters********************************************
 +  lvth0     = '-1.0000e-03+dlvth0_n_bpw_18_mm'          wvth0     =  '6.027e-02+dwvth0_n_bpw_18_mm'
 +  pvth0     =  '0+dpvth0_n_bpw_18_mm'                   lnlx      =  -2.8540e-08 
 +  wnlx      =   0.0000e+00                          pnlx      =   0.0000e+00
 +  wua       =  -1.8800e-11                          wu0       =  '5.4000e-01+dwu0_n_bpw_18_mm'
 +  pub       =   3.8000e-20                          pw0       =   1.3000e-09 
 +  wrdsw     =   0.0000e+00                          weta0     =   0.0000e+00                        
 +  wetab     =   0.0000e+00                          leta0     =   1.5740e-03                        
 +  letab     =   0.0000e+00                          peta0     =   0.0000e+00                        
 +  petab     =   0.0000e+00                          wpclm     =   0.0000e+00                        
 +  wvoff     =  -4.0780e-04                          lvoff     =  -4.2080e-03                        
 +  pvoff     =  -3.7880e-04                          wa0       =  -4.7310e-02                        
 +  la0       =  -4.6670e-01                          pa0       =  -2.6490e-02  
 +  wags      =   4.2420e-03                          lags      =   3.0280e-01                        
 +  pags      =   0.0000e+00                          wketa     =   0.0000e+00                        
 +  lketa     =  -1.9420e-02                          pketa     =   0.0000e+00                        
 +  wute      =   6.3730e-02                          lute      =   0.0000e+00                        
 +  pute      =   0.0000e+00                          wvsat     =   5.0660e+03                    
 +  lvsat     =   0.0000e+00                          pvsat     =  '0.0000e+00+dpvsat_n_bpw_18_mm'                        
 +  lpdiblc2  =  -4.7520e-03                          wat       =   7.0670e+03                        
 +  wprt      =   0.0000e+00                          acm       =   3.0000e+00                        
 +  ldif      =   8.0000e-08                          hdif      =   2.6000e-07                        
 +  n         =   1.0000e+00                          php       =   8.8000e-01                        
 +  cjgate    =  '5.0000e-10+dcjgate_n_bpw_18_mm'         ctp       =   9.1400e-04                        
 +  ptp       =   9.2400e-04                          cta       =   9.1900e-04                        
 +  pta       =   1.5800e-03                          elm       =   5.0000e+00                        
 +  tlevc     =   1.0000e+00                        


  **warning** (C:\synopsys\Hspice_A-2008.03\Models\.\mm180_reg18bpw_v123.mdl:5)   model n_bpw_18_mm is not used in netlist

 .endl  tt    
 .lib 'mm180_reg18_v124.lib' tt                    * tt, ff, ss, fnsp, snfp         
 .param  

 *1.8v nmos 
 +  dtox_n_18_mm      =   0.0000e+00                  dxl_n_18_mm       =   0.0000e+00                
 +  dxw_n_18_mm       =   0.0000e+00                  dvth0_n_18_mm     =   0.0000e+00                
 +  du0_n_18_mm       =   0.0000e+00                  dlvth0_n_18_mm    =   0.0000e+00
 +  dwvth0_n_18_mm    =   0.0000e+00                  dwu0_n_18_mm      =   0.0000e+00
 +  dpvth0_n_18_mm    =   0.0000e+00                  dpvsat_n_18_mm    =   0.0000e+00
 +  dcgdo_n_18_mm     =   0.0000e+00                  dcgso_n_18_mm     =   0.0000e+00                
 +  dcj_n_18_mm       =   0.0000e+00                  dcjsw_n_18_mm     =   0.0000e+00                
 +  dcjgate_n_18_mm   =   0.0000e+00  

 *1.8v pmos 
 +  dtox_p_18_mm      =   0.0000e+00                  du0_p_18_mm       =   0.0000e+00
 +  dxl_p_18_mm       =   0.0000e+00                  dxw_p_18_mm       =   0.0000e+00                
 +  dvth0_p_18_mm     =   0.0000e+00                  dlvth0_p_18_mm    =   0.0000e+00
 +  dwvth0_p_18_mm    =   0.0000e+00
 +  dpvth0_p_18_mm    =   0.0000e+00                  dpvsat_p_18_mm    =   0.0000e+00
 +  dcgdo_p_18_mm     =   0.0000e+00                
 +  dcgso_p_18_mm     =   0.0000e+00                  dcj_p_18_mm       =   0.0000e+00                
 +  dcjsw_p_18_mm     =   0.0000e+00                  dcjgate_p_18_mm   =   0.0000e+00                

 .include './mm180_reg18_v124.mdl'   
 ******************************************************************************************
 *         0.18um 1.8v/3.3v mixedmode twin-well technology, 1.8v nmos model               *
 ******************************************************************************************

 .model n_18_mm nmos
 *****model selectors/controllers*********************************
 +  level     =   4.9000e+01                          version   =   3.2000e+00  
 +  binunit   =   1.0000e+00                          mobmod    =   1.0000e+00                           
 +  capmod    =   2.0000e+00                          nqsmod    =   0.0000e+00                        


 *****process parameters******************************************
 +  tox       =  '4.2000e-09+dtox_n_18_mm'            toxm      =   4.2000e-09                        
 +  xj        =   1.6000e-07                          nch       =   3.7446e+17                        
 +  rsh       =   8.0000e+00                          ngate     =   1.0000e+23


 *****basic model parameters**************************************
 +  vth0      =  '3.0750e-01+dvth0_n_18_mm'           k1        =   4.5780e-01                     
 +  k2        =  -2.6380e-02                          k3        =  -1.0880e+01                        
 +  k3b       =   2.3790e-01                          w0        =  -8.8130e-08                        
 +  nlx       =   4.2790e-07                          dvt0      =   4.0420e-01                        
 +  dvt1      =   3.2370e-01                          dvt2      =  -8.6020e-01                        
 +  dvt0w     =   3.8300e-01                          dvt1w     =   6.0000e+05                        
 +  dvt2w     =  -2.5000e-02                          lint      =   1.5870e-08                        
 +  wint      =   1.0220e-08                          dwg       =  -3.3960e-09                        
 +  dwb       =   1.3460e-09                          u0        =  '3.1410e+02+du0_n_18_mm'                       
 +  ua        =  -9.2010e-10                          ub        =   1.9070e-18
 +  uc        =   4.3550e-11                          vsat      =   7.1580e+04 
 +  a0        =   1.9300e+00                          ags       =   5.0720e-01                        
 +  b0        =   1.4860e-06                          b1        =   9.0640e-06                        
 +  keta      =   1.7520e-02                          a1        =   0.0000e+00                        
 +  a2        =   1.0000e+00                          voff      =  -1.0880e-01                        
 +  nfactor   =   1.0380e+00                          cit       =  -1.5110e-03                        
 +  cdsc      =   2.1750e-03                          cdscd     =  -5.0000e-04                        
 +  cdscb     =   8.2410e-04                          eta0      =   1.0040e-03                        
 +  etab      =  -1.4590e-03                          dsub      =   1.5920e-03                        
 +  pclm      =   1.0910e+00                          pdiblc1   =   3.0610e-03                        
 +  pdiblc2   =   1.0000e-06                          pdiblcb   =   0.0000e+00                        
 +  drout     =   1.5920e-03                          pscbe1    =   4.8660e+08                        
 +  pscbe2    =   2.8000e-07                          pvag      =  -2.9580e-01                        


 *****parameters for asymmetric and bias-dependent rds model******
 +  rdsw      =   4.9050e+00                          prwg      =   0.0000e+00                        
 +  prwb      =   0.0000e+00                          wr        =   1.0000e+00


 *****impact ionization current model parameters******************
 +  alpha0    =   0.0000e+00                          alpha1    =   0.0000e+00                        
 +  beta0     =   3.0000e+01                        


 *****gate-induced drain leakage model parameters*****************


 *****gate dielectric tunneling current model parameters**********


 *****charge and capacitance model parameters*********************
 +  xpart     =   1.0000e+00                          cgso      =  '2.3500e-10+dcgso_n_18_mm'         
 +  cgdo      =  '2.3500e-10+dcgdo_n_18_mm'           cgbo      =   0.0000e+00                        
 +  cgsl      =   0.0000e+00                          cgdl      =   0.0000e+00                        
 +  ckappa    =   6.0000e-01                          cf        =   1.5330e-10                        
 +  clc       =   1.0000e-07                          cle       =   6.0000e-01                        
 +  dlc       =   2.9000e-08                          dwc       =   0.0000e+00                        
 +  vfbcv     =  -1.0000e+00                          noff      =   1.0000e+00                        
 +  voffcv    =   0.0000e+00                          acde      =   1.0000e+00                        
 +  moin      =   1.5000e+01                        


 *****high-speed/rf model parameters******************************


 *****flicker and thermal noise model parameters******************
 +  noimod    =   2                                   noia      =   1.3182567385564e+19
 +  noib      =   144543.977074592                    noic      =   -1.24515794572817e-12
 +  ef        =   0.92                                em        =   41000000


 *****layout-dependent parasitics model parameters****************
 +  lmin      =   1.8000e-07                          lmax      =   5.0000e-05
 +  wmin      =   2.4000e-07                          wmax      =   1.0000e-04
 +  xl        = '-1.0500e-08+dxl_n_18_mm'             xw        =  '0.0000e-00+dxw_n_18_mm'           


 *****asymmetric source/drain junction diode model parameters*****
 +  js        =   1.0000e-06                          jsw       =   7.0000e-11                        
 +  cj        =  '1.0300e-03+dcj_n_18_mm'             mj        =   4.4300e-01                        
 +  pb        =   8.1300e-01                          cjsw      =  '1.3400e-10+dcjsw_n_18_mm'         
 +  mjsw      =   3.3000e-01                        


 *****temperature dependence parameters***************************
 +  tnom      =   2.5000e+01                          ute       =  -1.2860e+00                        
 +  kt1       =  -2.2550e-01                          kt1l      =  -4.1750e-09                        
 +  kt2       =  -2.5270e-02                          ua1       =   2.1530e-09                        
 +  ub1       =  -2.6730e-18                          uc1       =  -3.8320e-11                        
 +  at        =   1.4490e+04                          prt       =  -1.0180e+01                        
 +  xti       =   3.0000e+00                        


 *****dw and dl parameters****************************************
 +  wl        =   0.0000e+00                          wln       =   1.0000e+00                        
 +  ww        =   7.2620e-16                          wwn       =   1.0000e+00                        
 +  wwl       =   0.0000e+00                          ll        =  -1.0620e-15                        
 +  lln       =   1.0000e+00                          lw        =   2.9960e-15                        
 +  lwn       =   1.0000e+00                          lwl       =   0.0000e+00                        
 +  llc       =  -2.1400e-15                          lwc       =   0.0000e+00                        
 +  lwlc      =   0.0000e+00                          wlc       =   0.0000e+00                        
 +  wwc       =   0.0000e+00                          wwlc      =   0.0000e+00                        


 *****range parameters for model application**********************


 *****other parameters********************************************
 +  lvth0     = '-1.0000e-03+dlvth0_n_18_mm'          wvth0     =  '6.027e-02+dwvth0_n_18_mm'
 +  pvth0     =  '0+dpvth0_n_18_mm'                   lnlx      =  -2.8540e-08 
 +  wnlx      =   0.0000e+00                          pnlx      =   0.0000e+00
 +  wua       =  -1.8800e-11                          wu0       =  '5.4000e-01+dwu0_n_18_mm'
 +  pub       =   3.8000e-20                          pw0       =   1.3000e-09 
 +  wrdsw     =   0.0000e+00                          weta0     =   0.0000e+00                        
 +  wetab     =   0.0000e+00                          leta0     =   1.5740e-03                        
 +  letab     =   0.0000e+00                          peta0     =   0.0000e+00                        
 +  petab     =   0.0000e+00                          wpclm     =   0.0000e+00                        
 +  wvoff     =  -4.0780e-04                          lvoff     =  -4.2080e-03                        
 +  pvoff     =  -3.7880e-04                          wa0       =  -4.7310e-02                        
 +  la0       =  -4.6670e-01                          pa0       =  -2.6490e-02  
 +  wags      =   4.2420e-03                          lags      =   3.0280e-01                        
 +  pags      =   0.0000e+00                          wketa     =   0.0000e+00                        
 +  lketa     =  -1.9420e-02                          pketa     =   0.0000e+00                        
 +  wute      =   6.3730e-02                          lute      =   0.0000e+00                        
 +  pute      =   0.0000e+00                          wvsat     =   5.0660e+03                    
 +  lvsat     =   0.0000e+00                          pvsat     =  '0.0000e+00+dpvsat_n_18_mm'                        
 +  lpdiblc2  =  -4.7520e-03                          wat       =   7.0670e+03                        
 +  wprt      =   0.0000e+00                          acm       =   3.0000e+00                        
 +  ldif      =   8.0000e-08                          hdif      =   2.6000e-07                        
 +  n         =   1.0000e+00                          php       =   8.8000e-01                        
 +  cjgate    =  '5.0000e-10+dcjgate_n_18_mm'         ctp       =   9.1400e-04                        
 +  ptp       =   9.2400e-04                          cta       =   9.1900e-04                        
 +  pta       =   1.5800e-03                          elm       =   5.0000e+00                        
 +  tlevc     =   1.0000e+00                        
  **warning** (C:\synopsys\Hspice_A-2008.03\Models\.\mm180_reg18_v124.mdl:46)  model n_18_mm         device geometries will not be checked against the limits set bylmin, lmax, wmin and wmax. To enable this check, add a period(.)to the model name(i.e. enable model selector).


 ******************************************************************************************
 *         0.18um 1.8v/3.3v mixedmode twin-well technology, 1.8v pmos model               *
 ******************************************************************************************

 .model p_18_mm pmos
 *****model selectors/controllers*********************************
 +  level     =   4.9000e+01                          mobmod    =   3.0000e+00                        
 +  version   =   3.2000e+00                          capmod    =   2.0000e+00                        
 +  binunit   =   1.0000e+00                          nqsmod    =   0.0000e+00
  

 *****process parameters******************************************
 +  tox       =  '4.2000e-09+dtox_p_18_mm'            toxm      =   4.2000e-09                        
 +  xj        =   1.0000e-07                          nch       =   6.1310e+17                        
 +  ngate     =   1.0000e+23 

 *****basic model parameters**************************************
 +  vth0      = '-4.5550e-01+dvth0_p_18_mm'           k1        =   5.7040e-01                        
 +  k2        =   6.9730e-03                          k3        =  -2.8330e+00                        
 +  k3b       =   1.3260e+00                          w0        =  -1.9430e-07                        
 +  nlx       =   2.5300e-07                          dvt0      =   4.8850e-01                        
 +  dvt1      =   7.5780e-02                          dvt2      =   1.2870e-01                        
 +  dvt0w     =  -1.2610e-01                          dvt1w     =   2.4790e+04                        
 +  dvt2w     =   6.9150e-01                          lint      =  -1.0410e-08                        
 +  wint      =  -1.5250e-07                          dwg       =  -1.1510e-07                        
 +  dwb       =  -1.0390e-07                          u0        =  '1.1450e+02+du0_p_18_mm'  
 +  ua        =   1.5400e-09                          ub        =   2.6460e-19
 +  uc        =  -9.5870e-02                          vsat      =   5.3400e+04                                                                                            
 +  a0        =   1.3500e+00                          ags       =   3.8180e-01                        
 +  b0        =  -3.0880e-07                          b1        =   0.0000e+00                        
 +  keta      =   1.0440e-02                          a1        =   0.0000e+00                        
 +  a2        =   1.0000e+00                          voff      =  -1.0730e-01                                                                    
 +  nfactor   =   1.5350e-00                          cit       =  -1.0670e-03 
 +  cdsc      =   7.5780e-04                          cdscd     =  -2.8830e-05                        
 +  cdscb     =   1.0000e-04                          eta0      =   1.0710e+00                        
 +  etab      =  -9.2910e-01                          dsub      =   1.9191e+00
 +  pclm      =   2.6530e+00                          pdiblc1   =   0.0000e+00                        
 +  pdiblc2   =   5.0000e-06                          pdiblcb   =   0.0000e+00                        
 +  drout     =   1.4570e+00                          pscbe1    =   4.8660e+08                        
 +  pscbe2    =   2.8000e-07                          pvag      =   1.1620e+00                        


 *****parameters for asymmetric and bias-dependent rds model******
 +  rdsw      =   7.9210e+02                          prwg      =   0.0000e+00                        
 +  prwb      =   0.0000e+00                        


 *****impact ionization current model parameters******************
 +  alpha0    =   0.0000e+00                          alpha1    =   0.0000e+00                        
 +  beta0     =   3.0000e+01                        


 *****gate-induced drain leakage model parameters*****************


 *****gate dielectric tunneling current model parameters**********


 *****charge and capacitance model parameters*********************
 +  cgdo      =  '2.0540e-10+dcgdo_p_18_mm'           cgbo      =   0.0000e+00                        
 +  cgso      =  '2.0540e-10+dcgso_p_18_mm'           xpart     =   1.0000e+00                        
 +  cf        =   1.5330e-10                          dlc       =   5.6000e-08                                                                              
 +  cgsl      =   0.0000e+00                          cgdl      =   0.0000e+00                        
 +  ckappa    =   6.0000e-01                                                  
 +  clc       =   1.0000e-07                          cle       =   6.0000e-01                        
 +  dwc       =   0.0000e+00                        
 +  vfbcv     =  -1.0000e+00                          noff      =   1.0000e+00                        
 +  voffcv    =   0.0000e+00                          acde      =   1.0000e+00                        
 +  moin      =   1.5000e+01                        


 *****high-speed/rf model parameters******************************


 *****flicker and thermal noise model parameters******************
 +  noimod    =   2                                   noia      =   3.57456993317604e+18
 +  noib      =   2500                                noic      =   2.61260020285845e-11
 +  ef        =   1.1388                              em        =   41000000


 *****layout-dependent parasitics model parameters****************
 +  lmin      =   1.8000e-07                          lmax      =   5.0000e-05
 +  wmin      =   2.4000e-07                          wmax      =   1.0000e-04
 +  xl        = '-2.0000e-09+dxl_p_18_mm'             xw        =  '0.0000e+00+dxw_p_18_mm'           


 *****asymmetric source/drain junction diode model parameters*****
 +  js        =   3.0000e-06                          jsw       =   4.1200e-11                        
 +  cj        =  '1.1400e-03+dcj_p_18_mm'             mj        =   3.9500e-01                        
 +  pb        =   7.6200e-01                          cjsw      =  '1.7400e-10+dcjsw_p_18_mm'         
 +  mjsw      =   3.2400e-01                        


 *****temperature dependence parameters***************************
 +  tnom      =   2.5000e+01                          ute       =  -4.4840e-01                        
 +  kt1       =  -2.1940e-01                          kt1l      =  -8.2040e-09                        
 +  kt2       =  -9.4870e-03                          ua1       =   4.5710e-09                        
 +  ub1       =  -6.0260e-18                          uc1       =  -9.8500e-02                        
 +  at        =   1.2030e+04                          prt       =   0.0000e+00                        
 +  xti       =   3.0000e+00                        


 *****dw and dl parameters****************************************
 +  ww        =   1.2360e-14                          lw        =  -2.8730e-16                        
 +  ll        =   6.6350e-15                        
 +  wl        =   0.0000e+00                          wln       =   1.0000e+00                        
 +  wwn       =   1.0000e+00                        
 +  wwl       =   0.0000e+00                                                 
 +  lln       =   1.0000e+00                                                
 +  lwn       =   1.0000e+00                          lwl       =   0.0000e+00                        
 +  llc       =  -7.4500e-15                          lwc       =   0.0000e+00                        
 +  lwlc      =   0.0000e+00                          wlc       =   0.0000e+00                        
 +  wwc       =   0.0000e+00                          wwlc      =   0.0000e+00                        



 *****range parameters for model application**********************


 *****other parameters********************************************
 +  lvth0     =  '4.4000e-03+dlvth0_p_18_mm'          wvth0     = '-1.4800e-02+dwvth0_p_18_mm'                        
 +  pvth0     =  '3.2000e-03+dpvth0_p_18_mm'          lnlx      =  -1.5840e-08 
 +  wrdsw     =   1.0070e+01                          weta0     =   0.0000e+00                        
 +  wetab     =   0.0000e+00                          wpclm     =   0.0000e+00                        
 +  wua       =   2.6300e-09                          lua       =  -8.1530e-11
 +  pua       =   5.8550e-11                          wub       =   0.0000e+00                        
 +  lub       =   0.0000e+00                          pub       =   0.0000e+00                        
 +  wuc       =   0.0000e+00                          luc       =   0.0000e+00                        
 +  puc       =   0.0000e+00                          wvoff     =  -9.8160e-03                        
 +  lvoff     =  -9.8710e-04                          pvoff     =  -9.8330e-05                        
 +  wa0       =  -4.8070e-02                          la0       =  -2.8100e-01
 +  pa0       =   8.6610e-02                          wags      =  -4.1770e-02                        
 +  lags      =   4.4540e-02                          pags      =  -4.0760e-02                        
 +  wketa     =   0.0000e+00                          lketa     =  -1.2000e-02
 +  pketa     =   0.0000e+00                          wute      =  -2.6820e-01                        
 +  lute      =   0.0000e+00                          pute      =   0.0000e+00                        
 +  wvsat     =  -1.4200e+04                          lvsat     =   0.0000e+00                        
[...]
  gam eff   507.4459m   557.0907m   507.4459m   557.0907m   507.4459m
  gm          2.5539n   875.0147p    19.9525p    25.6348p     1.4208n
  gds       491.0094m    12.2726p     3.8360m     4.6377m    33.4629p
  gmb       700.1617p   316.6304p     5.4700p    14.0586p   204.3341p
  cdtot     765.7730f     6.9233f     5.9826f    35.9915f     4.9725f
  cgtot     487.1519f     6.4960f     3.8059f    23.4057f     4.2880f
  cstot     716.0505f     9.6349f     5.5941f    34.4553f     6.7890f
  cbtot     734.8846f    14.4453f     5.7413f    34.3416f     9.8368f
  cgs       231.6923f     2.1523f     1.8101f    11.8805f     1.5532f
  cgd       231.5940f     2.1522f     1.8093f    11.4358f     1.5532f



 subckt    xdriver2.x  xdriver2.x  xdriver2.x  xdriver2.x  xdriver2.x
 element  38:mpnot    38:mnnot    39:mpnot    39:mnnot    40:mpnot   
 model     0:p_18_mm   0:n_18_mm   0:p_18_mm   0:n_18_mm   0:p_18_mm 
 region        Cutoff      Linear      Linear      Cutoff      Cutoff
  id       -134.7754p   163.5779p  -228.8435p   171.2514p  -539.1017p
  ibs       1.770e-26  -4.876e-26   2.715e-26  -5.964e-26   7.080e-26
  ibd         2.4642f  -1.227e-23   3.380e-23    -4.1276f     9.8570f
  vgs       -12.3561n     1.8000     -1.8000     10.7457n   -12.3559n
  vds        -1.8000     10.7457n   -12.3559n     1.8000     -1.8000 
  vbs         0.          0.          0.          0.          0.     
  vth      -525.4626m   521.0897m  -537.5781m   457.2301m  -525.4626m
  vdsat     -56.9628m   509.4012m  -967.2589m    53.8309m   -56.9628m
  vod       525.4626m     1.2789     -1.2624   -457.2301m   525.4626m
  beta       13.5400m    12.3551m    20.6943m    31.2211m    54.1599m
  gam eff   557.0907m   507.4459m   557.0907m   507.4459m   557.0907m
  gm          3.5000n    79.8097p   102.5376p     5.6833n    14.0002n
  gds        49.0903p    15.3440m    18.5508m   133.8518p   196.3612p
  gmb         1.2665n    21.8801p    56.2335p   817.3365p     5.0661n
  cdtot      27.6932f    23.9304f   143.9660f    19.8902f   110.7727f
  cgtot      25.9840f    15.2235f    93.6227f    17.1521f   103.9358f
  cstot      38.5397f    22.3766f   137.8211f    27.1562f   154.1588f
  cbtot      57.7814f    22.9651f   137.3664f    39.3470f   231.1254f
  cgs         8.6091f     7.2404f    47.5219f     6.2129f    34.4363f
  cgd         8.6088f     7.2373f    45.7433f     6.2128f    34.4352f



 subckt    xdriver2.x  xdriver2.x  xdriver2.x  xdriver2.x  xdriver2.x
 element  40:mnnot    41:mpnot    41:mnnot    42:mpnot    42:mnnot   
 model     0:n_18_mm   0:p_18_mm   0:n_18_mm   0:p_18_mm   0:n_18_mm 
 region        Linear      Linear      Cutoff      Cutoff      Linear
  id        654.3116p  -915.3888p   685.0055p    -2.1564n     2.6172n
  ibs      -1.951e-25   1.086e-25  -2.385e-25   2.832e-25  -7.802e-25
  ibd      -4.909e-23   1.352e-22   -16.5105f    39.4279f  -1.963e-22
  vgs         1.8000     -1.8000     10.7457n   -12.3561n     1.8000 
  vds        10.7457n   -12.3561n     1.8000     -1.8000     10.7457n
  vbs         0.          0.          0.          0.          0.     
  vth       521.0897m  -537.5781m   457.2301m  -525.4626m   521.0897m
  vdsat     509.4012m  -967.2589m    53.8309m   -56.9628m   509.4012m
  vod         1.2789     -1.2624   -457.2301m   525.4626m     1.2789 
  beta       49.4204m    82.7773m   124.8843m   216.6398m   197.6815m
  gam eff   507.4459m   557.0907m   507.4459m   557.0907m   507.4459m
  gm        319.2388p   410.1570p    22.7333n    56.0008n     1.2770n
  gds        61.3762m    74.2033m   535.4071p   785.4448p   245.5047m
  gmb        87.5202p   224.9375p     3.2693n    20.2643n   350.0808p
  cdtot      95.7216f   575.8639f    79.5606f   443.0910f   382.8865f
  cgtot      60.8940f   374.4907f    68.6082f   415.7432f   243.5760f
  cstot      89.5063f   551.2844f   108.6247f   616.6354f   358.0252f
  cbtot      91.8606f   549.4656f   157.3881f   924.5017f   367.4423f
  cgs        28.9615f   190.0874f    24.8518f   137.7452f   115.8461f
  cgd        28.9492f   182.9732f    24.8512f   137.7408f   115.7970f



 subckt    xdriver2.x  xdriver2.x  xzerocurre  xzerocurre  xzerocurre
 element  43:mpnot    43:mnnot    44:mpa      44:mpb      44:mna     
 model     0:p_18_mm   0:n_18_mm   0:p_18_mm   0:p_18_mm   0:n_18_mm 
 region        Linear      Cutoff      Linear      Cutoff      Cutoff
  id         -3.6617n     2.7400n   -18.6467p   -16.8469p   7.627e-19
  ibs       4.345e-25  -9.542e-25   2.212e-27   2.759e-24     0.     
  ibd       5.409e-22   -66.0419f   2.754e-24   308.0304a  -1.540e-24
  vgs        -1.8000     10.7457n    -1.8000    -33.3165n    10.7678n
  vds       -12.3566n     1.8000    -16.1085n    -1.8000     10.7457n
  vbs         0.          0.          0.         16.1085n     0.     
  vth      -537.5781m   457.2301m  -537.5781m  -525.4626m   521.0897m
  vdsat    -967.2589m    53.8309m  -967.2589m   -56.9628m    53.8423m
  vod        -1.2624   -457.2301m    -1.2624    525.4626m  -521.0897m
  beta      331.1090m   499.5372m     1.2934m     1.6925m     1.9464m
  gam eff   557.0907m   507.4459m   557.0907m   557.0907m   507.4459m
  gm          1.6407n    90.9330n     8.3550p   437.5061p    23.6817a
  gds       296.8134m     2.1416n     1.1594m     6.1363p    70.9784p
  gmb       899.7930p    13.0774n     4.5820p   158.3148p     2.7579a
  cdtot       2.3035p   318.2426f     8.9979f     3.4616f     1.6973f
  cgtot       1.4980p   274.4329f     5.8514f     3.2480f     1.0720f
  cstot       2.2051p   434.4986f     8.6138f     4.8175f     1.6973f
  cbtot       2.1979p   629.5525f     8.5854f     7.2227f     2.9133f
  cgs       760.3496f    99.4072f     2.9701f     1.0761f   388.3091a
  cgd       731.8927f    99.4048f     2.8590f     1.0761f   388.3001a



 subckt    xzerocurre  xzerocurre  xzerocurre  xzerocurre  xzerocurre
 element  44:mnb      45:mpa      45:mpb      45:mna      45:mnb     
 model     0:n_18_mm   0:p_18_mm   0:p_18_mm   0:n_18_mm   0:n_18_mm 
 region        Linear      Linear      Linear      Cutoff      Cutoff
  id         20.4472p   -28.6063p   -28.6065p    10.7032p    10.7032p
  ibs      -6.095e-27   3.394e-27   4.232e-24  -3.727e-27  -3.727e-27
  ibd      -1.534e-24   4.226e-24   8.455e-24  -257.9760a  -257.9760a
  vgs         1.8000     -1.8000     -1.8000    100.0459n    10.7457n
  vds        10.7457n   -24.7125n   -24.7126n     1.8000      1.8000 
  vbs         0.          0.         24.7125n     0.          0.     
  vth       521.0897m  -537.5781m  -537.5781m   457.2301m   457.2301m
  vdsat     509.4011m  -967.2588m  -967.2589m    53.8309m    53.8309m
  vod         1.2789     -1.2624     -1.2624   -457.2300m  -457.2301m
  beta        1.5444m     1.2934m     1.2934m     1.9513m     1.9513m
  gam eff   507.4459m   557.0907m   557.0907m   507.4459m   507.4459m
  gm          9.9762p    12.8176p    12.8177p   355.2082p   355.2072p
  gds         1.9180m     1.1594m     1.1594m     8.3658p     8.3657p
  gmb         2.7350p     7.0294p     7.0294p    51.0837p    51.0835p
  cdtot       2.9913f     8.9979f     8.9979f     1.2431f     1.2431f
  cgtot       1.9029f     5.8514f     5.8514f     1.0720f     1.0720f
  cstot       2.7971f     8.6138f     8.6138f     1.6973f     1.6973f
  cbtot       2.8706f     8.5854f     8.5854f     2.4592f     2.4592f
  cgs       905.0480a     2.9701f     2.9701f   388.3092a   388.3092a
  cgd       904.6640a     2.8590f     2.8590f   388.3000a   388.3000a



 subckt    xzerocurre  xzerocurre  xzerocurre  xzerocurre  xzerocurre
 element  46:mp1      46:mn1      47:mp1      47:mn1      48:mp1     
 model     0:p_18_mm   0:n_18_mm   0:p_18_mm   0:n_18_mm   0:p_18_mm 
 region        Cutoff      Linear      Linear      Cutoff      Cutoff
  id        -82.0850f     3.6824p    -4.4909p   890.8959f   -16.8470p
  ibs       2.233e-28  -1.098e-27   5.328e-28  -8.022e-28   2.212e-27
  ibd       308.0304a  -1.434e-23   4.010e-23  -257.9760a   308.0304a
  vgs      -234.3554n     1.8000     -1.8000     51.0546n  -112.3268n
  vds        -1.8000    100.0459n  -234.3554n     1.8000     -1.8000 
  vbs         0.          0.          0.          0.          0.     
  vth      -462.7488m   332.6652m  -462.7488m   328.8201m  -525.4626m
  vdsat     -37.8163m     1.2989     -1.1788     34.8481m   -56.9628m
  vod       462.7486m     1.4673     -1.3373   -328.8201m   525.4625m
  beta       20.2940u    25.2871u    14.5205u    28.2579u     1.6925m
  gam eff   557.0907m   507.4459m   557.0907m   507.4459m   557.0907m
  gm          2.4318p     1.6940p     2.4660p    32.6890p   437.5071p
  gds       482.1292a    36.8127u    19.1634u    87.2266f     6.1363p
  gmb       906.1106f   662.5431f     1.5835p     7.6229p   158.3151p
  cdtot       3.4616f    95.5553f   263.4713f     1.2431f     3.4616f
  cgtot      71.9292f    82.5917f   246.4795f    20.1443f     3.2480f
  cstot       4.8177f    82.7395f   250.0554f     1.6976f     4.8175f
  cbtot      75.9017f    22.1576f    80.9620f    21.5307f     7.2227f
  cgs         1.0784f    40.4570f   126.7452f   389.2038a     1.0761f
  cgd         1.0761f    40.2231f   120.4356f   388.2995a     1.0761f



 subckt    xzerocurre  xzerocurre  xzerocurre  xnonoverla  xnonoverla
 element  48:mn1      49:mp1      49:mn1      50:mp1      50:mn1     
 model     0:n_18_mm   0:p_18_mm   0:n_18_mm   0:p_18_mm   0:n_18_mm 
 region        Linear      Linear      Cutoff      Cutoff      Linear
  id         20.4473p   -14.3028p    10.7032p  -139.7546f     3.7401p
  ibs      -6.095e-27   1.697e-27  -3.727e-27   2.302e-28  -1.115e-27
  ibd      -1.534e-24   2.113e-24  -257.9760a   308.0304a  -7.316e-24
  vgs         1.8000     -1.8000     10.7458n  -133.7793n     1.8000 
  vds        10.7458n   -12.3559n     1.8000     -1.8000     51.0546n
  vbs         0.          0.          0.          0.          0.     
  vth       521.0897m  -537.5781m   457.2301m  -468.8000m   341.4528m
  vdsat     509.4011m  -967.2589m    53.8309m   -38.1519m     1.2675 
  vod         1.2789     -1.2624   -457.2301m   468.7998m     1.4585 
  beta        1.5444m     1.2934m     1.9513m    40.3781u    50.6582u
  gam eff   507.4459m   557.0907m   507.4459m   557.0907m   507.4459m
  gm          9.9762p     6.4086p   355.2072p     4.1408p     1.7279p
  gds         1.9180m     1.1594m     8.3657p     1.6035f    73.2785u
  gmb         2.7350p     3.5146p    51.0835p     1.5476p   677.7971f
  cdtot       2.9913f     8.9979f     1.2431f     3.4616f    49.0709f
  cgtot       1.9029f     5.8514f     1.0720f    36.7530f    41.4071f
  cstot       2.7971f     8.6138f     1.6973f     4.8176f    42.2243f
  cbtot       2.8706f     8.5854f     2.4592f    40.7266f    12.3216f
  cgs       905.0480a     2.9701f   388.3092a     1.0772f    20.3281f
  cgd       904.6640a     2.8590f   388.3000a     1.0761f    20.1298f



 subckt    xnonoverla  xnonoverla  xnonoverla  xnonoverla  xnonoverla
 element  51:mp1      51:mn1      52:mp1      52:mn1      53:mp1     
 model     0:p_18_mm   0:n_18_mm   0:p_18_mm   0:n_18_mm   0:p_18_mm 
 region        Linear      Cutoff      Cutoff      Linear      Linear
  id         -5.0698p     1.4696p  -139.7546f     3.7401p    -5.0690p
  ibs       6.015e-28  -9.747e-28   2.302e-28  -1.115e-27   6.015e-28
  ibd       2.289e-23  -257.9760a   308.0304a  -7.316e-24   2.289e-23
  vgs        -1.8000     51.0546n  -133.7579n     1.8000     -1.8000 
  vds      -133.7793n     1.8000     -1.8000     51.0546n  -133.7579n
  vbs         0.          0.          0.          0.          0.     
  vth      -468.8000m   335.8736m  -468.8000m   341.4528m  -468.8000m
  vdsat      -1.1694     35.2928m   -38.1519m     1.2675     -1.1694 
  vod        -1.3312   -335.8736m   468.7998m     1.4585     -1.3312 
  beta       28.9820u    56.8520u    40.3781u    50.6582u    28.9820u
  gam eff   557.0907m   507.4459m   557.0907m   507.4459m   557.0907m
  gm          2.7916p    53.9655p     4.1408p     1.7279p     2.7912p
  gds        37.8991u   219.8252f     1.6035f    73.2785u    37.8991u
  gmb         1.7835p    12.5613p     1.5476p   677.7971f     1.7832p
  cdtot     135.4569f     1.2431f     3.4616f    49.0709f   135.4569f
  cgtot     122.9622f    10.4368f    36.7530f    41.4071f   122.9622f
  cstot     126.9912f     1.6974f     4.8176f    42.2243f   126.9912f
  cbtot      43.8144f    11.8236f    40.7266f    12.3216f    43.8144f
  cgs        63.2445f   388.7159a     1.0772f    20.3281f    63.2445f
  cgd        60.0615f   388.2997a     1.0761f    20.1298f    60.0615f



 subckt    xnonoverla  xnonoverla  xnonoverla  xnonoverla  xnonoverla
 element  53:mn1      54:mpa      54:mpb      54:mna      54:mnb     
 model     0:n_18_mm   0:p_18_mm   0:p_18_mm   0:n_18_mm   0:n_18_mm 
 region        Cutoff      Linear      Cutoff      Cutoff      Linear
  id          1.4696p    -2.4125p  -612.5667f   1.571e-19     4.2129p
  ibs      -9.747e-28   2.862e-28   8.534e-25     0.       -1.256e-27
  ibd      -257.9760a   8.528e-25   308.0304a  -3.173e-25  -3.161e-25
  vgs       913.1636p    -1.8000    -44.4400n    51.0546n     1.8000 
  vds         1.8000     -4.9851n    -1.8000      2.2140n     2.2140n
  vbs         0.          0.          4.9851n     0.          0.     
  vth       335.8736m  -525.8112m  -505.1282m   521.0897m   521.0897m
  vdsat      35.2928m    -1.0639    -41.9376m    53.8423m   509.4011m
  vod      -335.8736m    -1.2742    505.1282m  -521.0897m     1.2789 
  beta       56.8520u   434.9433u   276.7587u     1.9464m     1.5444m
  gam eff   507.4459m   557.0907m   557.0907m   507.4459m   507.4459m
  gm         53.9654p     1.2776p    17.5743p     4.8793a     2.0555p
  gds       219.8248f   484.2794u    32.8921f    70.9785p     1.9180m
  gmb        12.5613p   727.8722f     6.4090p   5.682e-19   563.5108f
  cdtot       1.2431f    13.5385f     3.4616f     1.6973f     2.9913f
  cgtot      10.4368f     9.2592f     6.6662f     1.0720f     1.9029f
  cstot       1.6974f    12.2899f     4.8175f     1.6973f     2.7971f
  cbtot      11.8236f     9.5924f    10.6408f     2.9133f     2.8706f
  cgs       388.7159a     4.6547f     1.0762f   388.3091a   905.0480a
  cgd       388.2997a     4.5319f     1.0761f   388.3001a   904.6641a



 subckt    xnonoverla  xnonoverla  xaotc1.xco  xaotc1.xco  xaotc1.xco
 element  55:mp1      55:mn1      56:mp1      56:mn1      57:mp1     
 model     0:p_18_mm   0:n_18_mm   0:p_18_mm   0:n_18_mm   0:p_18_mm 
 region        Linear      Cutoff      Cutoff      Linear      Linear
  id         -5.0691p     1.4696p   -16.8470p    20.4473p   -14.3028p
  ibs       6.015e-28  -9.747e-28   2.212e-27  -6.095e-27   1.697e-27
  ibd       2.289e-23  -257.9760a   308.0304a  -1.534e-24   2.113e-24
  vgs        -1.8000      2.2140n  -135.8639n     1.8000     -1.8000 
  vds      -133.7586n     1.8000     -1.8000     10.7458n   -12.3559n
  vbs         0.          0.          0.          0.          0.     
  vth      -468.8000m   335.8736m  -525.4626m   521.0897m  -537.5781m
  vdsat      -1.1694     35.2928m   -56.9628m   509.4011m  -967.2589m
  vod        -1.3312   -335.8736m   525.4625m     1.2789     -1.2624 
  beta       28.9820u    56.8520u     1.6925m     1.5444m     1.2934m
  gam eff   557.0907m   507.4459m   557.0907m   507.4459m   557.0907m
  gm          2.7912p    53.9654p   437.5074p     9.9762p     6.4086p
  gds        37.8991u   219.8248f     6.1363p     1.9180m     1.1594m
  gmb         1.7832p    12.5613p   158.3152p     2.7350p     3.5146p
  cdtot     135.4569f     1.2431f     3.4616f     2.9913f     8.9979f
  cgtot     122.9622f    10.4368f     3.2480f     1.9029f     5.8514f
  cstot     126.9912f     1.6974f     4.8175f     2.7971f     8.6138f
  cbtot      43.8144f    11.8236f     7.2227f     2.8706f     8.5854f
  cgs        63.2445f   388.7159a     1.0761f   905.0480a     2.9701f
  cgd        60.0615f   388.2997a     1.0761f   904.6640a     2.8590f



 subckt    xaotc1.xco  xaotc1.xsr  xaotc1.xsr  xaotc1.xsr  xaotc1.xsr
 element  57:mn1      58:mpa      58:mpb      58:mna      58:mnb     
 model     0:n_18_mm   0:p_18_mm   0:p_18_mm   0:n_18_mm   0:n_18_mm 
 region        Cutoff      Cutoff      Cutoff      Linear      Cutoff
  id         10.7032p   -14.4884p   -18.2889p    20.4892p   7.643e-19
  ibs      -3.727e-27   1.885e-27   239.5796a  -6.108e-27     0.     
  ibd      -257.9760a   239.5796a   308.0304a  -1.537e-24  -1.543e-24
  vgs        10.7458n   -12.3559n  -399.9976m     1.8000     10.7677n
  vds         1.8000     -1.4000   -399.9976m    10.7678n    10.7678n
  vbs         0.          0.          1.4000      0.          0.     
  vth       457.2301m  -528.1549m  -850.3944m   521.0897m   521.0897m
  vdsat      53.8309m   -56.9663m   -60.3183m   509.4012m    53.8423m
  vod      -457.2301m   528.1549m   450.3968m     1.2789   -521.0897m
  beta        1.9513m     1.6896m     1.3681m     1.5444m     1.9464m
  gam eff   507.4459m   557.0907m   549.2006m   507.4459m   507.4459m
  gm        355.2072p   375.5105p   542.7876p     9.9967p    23.7303a
  gds         8.3657p     5.6752p    14.4421p     1.9180m    70.9784p
  gmb        51.0835p   136.8226p   118.9173p     2.7406p     2.7635a
  cdtot       1.2431f     3.6139f     3.4616f     2.9913f     1.6973f
  cgtot       1.0720f     3.2480f     2.7884f     1.9029f     1.0720f
  cstot       1.6973f     4.8175f     3.6139f     2.7971f     1.6973f
  cbtot       2.4592f     7.3749f     5.5595f     2.8706f     2.9133f
  cgs       388.3092a     1.0761f     1.0761f   905.0480a   388.3091a
  cgd       388.3000a     1.0761f     1.0761f   904.6641a   388.3001a



 subckt    xaotc1.xsr  xaotc1.xsr  xaotc1.xsr  xaotc1.xsr
 element  59:mpa      59:mpb      59:mna      59:mnb     
 model     0:p_18_mm   0:p_18_mm   0:n_18_mm   0:n_18_mm 
 region        Cutoff      Cutoff      Linear      Cutoff
  id        -14.4884p   -18.2888p    20.4891p   7.643e-19
  ibs       1.885e-27   239.5796a  -6.108e-27     0.     
  ibd       239.5796a   308.0304a  -1.537e-24  -1.543e-24
  vgs       -12.3563n  -399.9975m     1.8000     10.7678n
  vds        -1.4000   -399.9975m    10.7677n    10.7677n
  vbs         0.          1.4000      0.          0.     
  vth      -528.1549m  -850.3944m   521.0897m   521.0897m
  vdsat     -56.9663m   -60.3183m   509.4012m    53.8423m
  vod       528.1549m   450.3969m     1.2789   -521.0897m
  beta        1.6896m     1.3681m     1.5444m     1.9464m
  gam eff   557.0907m   549.2006m   507.4459m   507.4459m
  gm        375.5105p   542.7853p     9.9966p    23.7302a
  gds         5.6752p    14.4420p     1.9180m    70.9784p
  gmb       136.8226p   118.9168p     2.7406p     2.7635a
  cdtot       3.6139f     3.4616f     2.9913f     1.6973f
  cgtot       3.2480f     2.7884f     1.9029f     1.0720f
  cstot       4.8175f     3.6139f     2.7971f     1.6973f
  cbtot       7.3749f     5.5595f     2.8706f     2.9133f
  cgs         1.0761f     1.0761f   905.0480a   388.3091a
  cgd         1.0761f     1.0761f   904.6641a   388.3001a




          ***** job concluded
1****** HSPICE -- A-2008.03 32-BIT (Feb 26 2008) winnt ******                   
 ******  
 ****project****                                                                
  ******  job statistics summary           tnom=  25.000 temp=  25.000          
 ******  

           total memory used       2458 kbytes

  # nodes =     465 # elements=     204
  # diodes=       0 # bjts    =       0 # jfets   =       0 # mosfets =     179
  # va device =       0

    analysis           time    # points   tot. iter  conv.iter

    op point           0.02           1          70
    transient          4.89   300000001          70          35 rev=         0
    readin             0.06
    errchk             0.01
    setup              0.02
    output             0.00
           total cpu time          5.03 seconds
           total elapsed time         5 seconds
               job started at  12:43:59 12/23/2020
               job ended   at  12:44:04 12/23/2020


 Init: hspice initialization file: C:\synopsys\Hspice_A-2008.03\hspice.ini
