 ****** HSPICE -- A-2008.03 32-BIT (Feb 26 2008) winnt ******                   
  Copyright (C) 2008 Synopsys, Inc. All Rights Reserved.                        
  Unpublished-rights reserved under US copyright laws.
  This program is protected by law and is subject to the 
  terms and conditions of the license agreement found in:
    C:\synopsys\Hspice_A-2008.03\license.warn
  Use of this program is your acceptance to be bound by this 
  license agreement. HSPICE is the trademark of Synopsys, Inc.
  Input File: c:\users\user\desktop\107360145project109-1\xor.sp                
 Init: read install configuration file: C:\synopsys\Hspice_A-2008.03\meta.cfg
 Init: hspice initialization file: C:\synopsys\Hspice_A-2008.03\hspice.ini





 .include  'c:\synopsys\hspice_a-2008.03\models\lib.sp'
 .lib 'core_rf_v2d5.lib' tt                        * tt, ff, ss, fnsp, snfp

 .param
 *
 + dcd_n_18_rf=0
 + dcgs_n_18_rf=0
 + drgate_n_18_rf=0
 + dtox_n_18_rf=0.0000e+00
 + dxl_n_18_rf=0.0000e+00
 + dxw_n_18_rf=0.0000e+00
 + dvth0_n_18_rf=0.0000e+00
 + du0_n_18_rf=0.0000e+00
 + dlvth0_n_18_rf=0.0000e+00
 + dwvth0_n_18_rf=0.0000e+00
 + dwu0_n_18_rf=0.0000e+00
 + dpvth0_n_18_rf=0.0000e+00
 + dpvsat_n_18_rf=0.0000e+00
 + dcf_n_18_rf=0.0000e+00
 + dcgdo_n_18_rf=0.0000e+00
 + dcgdl_n_18_rf=0.0000e+00
 + dcgso_n_18_rf=0.0000e+00
 + dcgsl_n_18_rf=0.0000e+00
 + dcj_n_18_rf=0.0000e+00
 + dcjsw_n_18_rf=0.0000e+00
 + dcjgate_n_18_rf=0.0000e+00
 *
 + dcd_p_18_rf=0
 + dcgs_p_18_rf=0
 + drgate_p_18_rf=0
 + dcgdl_p_18_rf=0.0000e+00
 + dcgsl_p_18_rf=0.0000e+00
 + dcf_p_18_rf=0.0000e+00
 + dtox_p_18_rf=0.0000e+00
 + du0_p_18_rf=0.0000e+00
 + dxl_p_18_rf=0.0000e+00
 + dxw_p_18_rf=0.0000e+00
 + dvth0_p_18_rf=0.0000e+00
 + dlvth0_p_18_rf=0.0000e+00
 + dwvth0_p_18_rf=0.0000e+00
 + dpvth0_p_18_rf=0.0000e+00
 + dpvsat_p_18_rf=0.0000e+00
 + dcgdo_p_18_rf=0.0000e+00
 + dcgso_p_18_rf=0.0000e+00
 + dcj_p_18_rf=0.0000e+00
 + dcjsw_p_18_rf=0.0000e+00
 + dcjgate_p_18_rf=0.0000e+00
 .include './core_rf_v2d5.mdl'
 *          
 *
 *     ############################################
 *     #                                          #
 *     #  018rfcmos 1.8v nmos scalable with nf    #
 *     #  hspice model                            #            
 *     #                                          #  
 *     ############################################
 *
 *
 .subckt n_l18w500_18_rf 1 2 3 4 nf=21
 *
 *
 * #### define bsim3v3 model variable #####
 *
 .param p_wr='(841.3723+1543.5167/nf-4288.7956/(nf*nf))*1e-3'
 *
 * #### define rf extension model variable #####
 *
 .param p_rg='-0.8966+107.7889/nf-364.622/(nf*nf)'
 .param p_cd='(0.9008+0.2570*nf+0.2297*(nf*nf))*1e-15'
 .param p_cgs='(-2.0811+1.4629*nf+0.009752*(nf*nf))*1e-15'
 .param p_ld='(24.8301+396.8130/nf-1112.3751/(nf*nf))*1e-12'
 .param p_ls='(24.8301+396.8130/nf-1112.3751/(nf*nf))*1e-12'
 .param p_djdb_a='(4.25*((nf+1)/2))*1e-12'
 .param p_djdb_p='(1.7*((nf+1)/2)+5)*1e-6'
 .param p_djdb_g='(5*nf)*1e-6'
 .param p_djsb_a='(4.25*((nf+1)/2))*1e-12'
 .param p_djsb_p='(1.7*((nf+1)/2)+5)*1e-6'
 .param p_djsb_g='(5*nf)*1e-6'
 .param p_rsub1='120.783-258.189/nf+939.7544/(nf*nf)'
 .param p_rsub2=2
 .param p_rsub3=2
 *
 * --------- gate network ------------------------------
 cgs_ext 21 30 'p_cgs*(1+dcgs_n_18_rf)'
 rgate 2 21 'p_rg*(1+drgate_n_18_rf)'
 *
 * --------- drain network -----------------------------
 ldrain 1 11 p_ld
 lsource 30 3 p_ls
 cd 11 30 'p_cd* (1+dcd_n_18_rf)'
 *
 * --------- substrate network -------------------------
 * diodes are for n-type mos transistors
 *
 djdb_area 12 11
 + bsim_diode_area
 + area = p_djdb_a
 djdb_perim 12 11
 + bsim_diode_perim
 + area = p_djdb_p
 djdb_swg 12 11
 + bsim_diode_swg
 + area = p_djdb_g
 *
 djsb_area 31 30
 + bsim_diode_area
 + area = p_djsb_a
 djsb_perim 31 30
 + bsim_diode_perim
 + area = p_djsb_p
 djsb_swg 31 30
 + bsim_diode_swg
 + area = p_djsb_g
 *
 rsub2 12 40 p_rsub2
 rsub3 31 40 p_rsub3
 rsub1 40 4 p_rsub1
 *
 * --------- ideal mos transistor ----------------------
 main 11 21 30 40
 + bsim_mos_transistor
 + l = 1.8e-07
 + w = 5e-6
 + ad = 0
 + as = 0
 + pd = 0
 + ps = 0
 + m = nf
 *
 * -------- diodes & nmosfet spice parameters ------------
 *
 .model bsim_diode_area d
 + cj0 = '0.00103*(1+dcj_n_18_rf )'  vj = 0.813  m = 0.443  is = 1e-06  n = 1
 *
 .model bsim_diode_perim d
 + cj0 = '1.34e-10*(1+dcjsw_n_18_rf )'  vj = 0.88  m = 0.33  is = 7e-11  n = 1
 *
 .model bsim_diode_swg d
 + cj0 = '5e-10*(1+ dcjgate_n_18_rf)'  vj = 0.88  m = 0.33  is = 7e-11  n = 1
 *
 .model bsim_mos_transistor nmos
 + level = 49 version = 3.2 binunit = 1 mobmod = 1
 + capmod = 2 nqsmod = 0 noimod = 2 tox = '4.2e-09+ dtox_n_18_rf'
 + toxm = 4.2e-09 xj = 1.6e-07 nch = 3.745e+17 rsh = 8
 + ngate = 1e+23 vth0 = '0.3075+ dvth0_n_18_rf' k1 = 0.4578 k2 = -0.02638
 + k3 = -10.88 k3b = 0.2379 w0 = -8.813e-08 nlx = 4.279e-07
 + dvt0 = 0.4042 dvt1 = 0.3237 dvt2 = -0.8602 dvt0w = 0.383
 + dvt1w = 6e+05 dvt2w = -0.025 lint = 1.587e-08 wint = 1.022e-08
 + dwg = -3.396e-09 dwb = 1.346e-09 u0 = '332.1+ du0_n_18_rf' ua = -1.17e-09
 + ub = 2.407e-18 uc = 4.355e-11 vsat = 8.1e+04 a0 = 1.93
 + ags = 0.5072 b0 = 1.486e-06 b1 = 9.064e-06 keta = 0.01752
 + a1 = 0 a2 = 1 voff = -0.1208 nfactor = 1.038
 + cit = -0.001511 cdsc = 0.002175 cdscd = 0 cdscb = 0.0008241
 + eta0 = 0.005504 etab = -0.001459 dsub = 0.001592 pclm = 0.741
 + pdiblc1 = 0.005061 pdiblc2 = 0.006001 pdiblcb = 0 drout = 0.001592
 + pscbe1 = 4.866e+08 pscbe2 = 3e-08 pvag = -0.2958 rdsw = 9.905
 + prwg = 1.1 prwb = 0 wr = p_wr alpha0 = 0
 + alpha1 = 0 beta0 = 30 xpart = 1 cgso = '1.55e-10*(1+dcgso_n_18_rf )'
 + cgdo = '1.55e-10*(1+dcgdo_n_18_rf )' cgbo = 0 cgsl = '3e-11*(1+dcgsl_n_18_rf )' cgdl = '3e-11*(1+dcgdl_n_18_rf )'
 + ckappa = 0.6 cf = '2.33e-11*(1+dcf_n_18_rf )' clc = 1e-07 cle = 0.6
 + dlc = 4e-08 dwc = 0 vfbcv = -1 noff = 1
 + voffcv = 0 acde = 1 moin = 15 noia = 1.31826e+19
 + noib = 1.44544e+05 noic = -1.24516e-12 em = 4.1e+07 af = 1
 + ef = 0.92 kf = 0 lmin = 1.8e-07 lmax = 1.805e-07
 + wmin = 5e-06 wmax = 1.05e-04 xl = '-1.05e-08+  dxl_n_18_rf' xw = '0+ dxw_n_18_rf'
 + js = 1e-06 jsw = 7e-11 cj = '0.00103*(1+dcj_n_18_rf)' mj = 0.443
 + pb = 0.813 cjsw = '1.34e-10*(1+dcjsw_n_18_rf)' mjsw = 0.33 tnom = 25
 + ute = -1.286 kt1 = -0.2255 kt1l = -4.175e-09 kt2 = -0.02527
 + ua1 = 2.153e-09 ub1 = -2.673e-18 uc1 = -3.832e-11 at = 1.449e+04
 + prt = -46.18 xti = 3 wl = 0 wln = 1
 + ww = 7.262e-16 wwn = 1 wwl = 0 ll = -1.062e-15
 + lln = 1 lw = 2.996e-15 lwn = 1 lwl = 0
 + llc = -6.64e-15 lwc = 0 lwlc = 0 wlc = 0
 + wwc = 0 wwlc = 0 lvth0 = '-0.0001+ dlvth0_n_18_rf' wvth0 = '0.06027+ dwvth0_n_18_rf'
 + pvth0 = '0+ dpvth0_n_18_rf' lnlx = -2.854e-08 wnlx = 0 pnlx = 0
 + lnfactor = 0.032 wua = -1.88e-11 wu0 = 0.54 pub = 3.8e-20
 + pw0 = 1.3e-09 lua = 1.5e-11 lub = 9.76e-20 wrdsw = 0
 + weta0 = 0 wetab = 0 leta0 = 0.001574 letab = 0
 + peta0 = 0 petab = 0 wpclm = 0 wvoff = -0.0004078
 + lvoff = -0.004208 pvoff = -0.0003788 wa0 = -0.04731 la0 = -0.4667
 + pa0 = -0.02649 wags = 0.004242 lags = 0.3028 pags = 0
 + wketa = 0 lketa = -0.01942 pketa = 0 wute = 0.06373
 + lute = 0 pute = 0 wvsat = 5066 lvsat = 0
 + pvsat = '0+ dpvsat_n_18_rf' lpdiblc2 = -0.004752 wat = 7067 wprt = 0
 + acm = 3 ldif = 8e-08 hdif = 2.6e-07 n = 1
 + php = 0.88 cjgate = '5e-10*(1+dcjgate_n_18_rf)' ctp = 0.000914 ptp = 0.000924
 + cta = 0.000919 pta = 0.00158 elm = 5 tlevc = 1
  **warning** (C:\synopsys\Hspice_A-2008.03\Models\.\core_rf_v2d5.mdl:109)  model b63            }device geometries will not be checked against the limits set bylmin, lmax, wmin and wmax. To enable this check, add a period(.)to the model name(i.e. enable model selector).
 .ends
 *
 *
 *
 *
 *     ############################################
 *     #                                          #
 *     #  018rfcmos 1.8v nmos scalable with length#
 *     #  hspice model                            #            
 *     #                                          #  
 *     ############################################
 *
 *
 .subckt n_po7w500_18_rf 1 2 3 4 l=0.5u
 *
 .param l_um='l*1e6'
 *
 * #### define bsim3v3 model variable #####
 *
 .param p_nlx='(475.2494-439.9303*l_um+1066.9945*(l_um*l_um))*1e-9'
 .param p_pclm='0.1422+0.0846/l_um+0.0043/(l_um*l_um)'
 *
 * #### define rf extension model variable #####
 *
 .param p_rg='30.0038-10.2118/l_um+0.9998/(l_um*l_um)'
 .param p_cd='(16.3846-30.4825*l_um+21.6092*(l_um*l_um))*1e-15'
 .param p_cgs='(0.5460+55.9389*l_um-66.3582*(l_um*l_um))*1e-15'
 .param p_ld=5.8e-11
 .param p_ls=5.8e-11
 .param p_djdb_a='(4.25*((7+1)/2))*1e-12'
 .param p_djdb_p='(1.7*((7+1)/2)+5)*1e-6'
 .param p_djdb_g='(5*7)*1e-6'
 .param p_djsb_a='(4.25*((7+1)/2))*1e-12'
 .param p_djsb_p='(1.7*((7+1)/2)+5)*1e-6'
 .param p_djsb_g='(5*7)*1e-6'
 .param p_rsub1='93.1907-8.5107/l_um+1.8334/(l_um*l_um)'
 .param p_rsub2=2
 .param p_rsub3=2
 *
 * --------- gate network ------------------------------
 cgs_ext 21 30 'p_cgs* (1+dcgs_n_18_rf)'
 rgate 2 21 'p_rg* (1+drgate_n_18_rf)'
 *
 * --------- drain network -----------------------------
 ldrain 1 11 p_ld
 lsource 30 3 p_ls
 cd 11 30 'p_cd* (1+dcd_n_18_rf)'
 *
 * --------- substrate network -------------------------
 * diodes are for n-type mos transistors
 *
 djdb_area 12 11
 + bsim_diode_area
 + area = p_djdb_a
 djdb_perim 12 11
 + bsim_diode_perim
 + area = p_djdb_p
 djdb_swg 12 11
 + bsim_diode_swg
 + area = p_djdb_g
 *
 djsb_area 31 30
 + bsim_diode_area
 + area = p_djsb_a
 djsb_perim 31 30
 + bsim_diode_perim
 + area = p_djsb_p
 djsb_swg 31 30
 + bsim_diode_swg
 + area = p_djsb_g
 *
 rsub2 12 40 p_rsub2
 rsub3 31 40 p_rsub3
 rsub1 40 4 p_rsub1
 *
 * --------- ideal mos transistor ----------------------
 main 11 21 30 40
 + bsim_mos_transistor
 + l = l
 + w = 5u
 + ad = 0
 + as = 0
 + pd = 0
 + ps = 0
 + m = 7
 *
 * -------- diodes & nmosfet spice parameters ------------
 *
 .model bsim_diode_area d
 + cj0 = '0.00103*(1+dcj_n_18_rf)'  vj = 0.813  m = 0.443  is = 1e-06  n = 1
 *
 .model bsim_diode_perim d
 + cj0 = '1.34e-10*(1+dcjsw_n_18_rf)'  vj = 0.88  m = 0.33  is = 7e-11  n = 1
 *
 .model bsim_diode_swg d
 + cj0 = '5e-10* (1+dcjgate_n_18_rf)'  vj = 0.88  m = 0.33  is = 7e-11  n = 1
 *
 .model bsim_mos_transistor nmos
 + level = 49 version = 3.2 binunit = 1 mobmod = 1
 + capmod = 2 nqsmod = 0 noimod = 2 tox = '4.2e-09+ dtox_n_18_rf'
 + toxm = 4.2e-09 xj = 1.6e-07 nch = 3.745e+17 rsh = 8
 + ngate = 1e+23 vth0 = '0.3075+ dvth0_n_18_rf' k1 = 0.4578 k2 = -0.02638
 + k3 = -10.88 k3b = 0.2379 w0 = -8.813e-08 nlx = p_nlx
 + dvt0 = 0.4042 dvt1 = 0.3237 dvt2 = -0.8602 dvt0w = 0.383
 + dvt1w = 6e+05 dvt2w = -0.025 lint = 1.587e-08 wint = 1.022e-08
 + dwg = -3.396e-09 dwb = 1.346e-09 u0 = '332.1+ du0_n_18_rf' ua = -1.17e-09
 + ub = 2.407e-18 uc = 4.355e-11 vsat = 8.1e+04 a0 = 1.93
 + ags = 0.5072 b0 = 1.486e-06 b1 = 9.064e-06 keta = 0.01752
 + a1 = 0 a2 = 1 voff = -0.1208 nfactor = 1.038
 + cit = -0.001511 cdsc = 0.002175 cdscd = 0 cdscb = 0.0008241
 + eta0 = 0.005504 etab = -0.001459 dsub = 0.001592 pclm = p_pclm
 + pdiblc1 = 0.005061 pdiblc2 = 0.006001 pdiblcb = 0 drout = 0.001592
 + pscbe1 = 4.866e+08 pscbe2 = 3e-08 pvag = -0.2958 rdsw = 9.905
 + prwg = 1.1 prwb = 0 wr = 0.97 alpha0 = 0
 + alpha1 = 0 beta0 = 30 xpart = 0 cgso = '1.35e-10*(1+dcgso_n_18_rf)'
 + cgdo = '1.35e-10*(1+dcgdo_n_18_rf)' cgbo = 0 cgsl = '2e-11*(1+dcgsl_n_18_rf)' cgdl = '2e-11*(1+dcgdl_n_18_rf)'
 + ckappa = 0.6 cf = '1.533e-10*(1+dcf_n_18_rf)' clc = 1e-07 cle = 0.6
 + dlc = 4e-08 dwc = 2e-07 vfbcv = -1 noff = 1
 + voffcv = 0 acde = 1 moin = 15 noia = 1.31826e+19
 + noib = 1.44544e+05 noic = -1.24516e-12 em = 4.1e+07 af = 1
 + ef = 0.92 kf = 0 lmin = 2e-07 lmax = 5e-07
 + wmin = 5e-06 wmax = 3.5e-05 xl = '-1.05e-08+ dxl_n_18_rf' xw = '0+ dxw_n_18_rf'
 + js = 1e-06 jsw = 7e-11 cj = '0.00103*(1+dcj_n_18_rf)' mj = 0.443
 + pb = 0.813 cjsw = '1.34e-10*(1+dcjsw_n_18_rf)' mjsw = 0.33 tnom = 25
 + ute = -1.286 kt1 = -0.2255 kt1l = -4.175e-09 kt2 = -0.02527
 + ua1 = 2.153e-09 ub1 = -2.673e-18 uc1 = -3.832e-11 at = 1.449e+04
 + prt = -46.18 xti = 3 wl = 0 wln = 1
 + ww = 7.262e-16 wwn = 1 wwl = 0 ll = -1.062e-15
 + lln = 1 lw = 2.996e-15 lwn = 1 lwl = 0
 + llc = -6.64e-15 lwc = 0 lwlc = 0 wlc = 0
 + wwc = 0 wwlc = 0 lvth0 = '-0.0001+dlvth0_n_18_rf' wvth0 = '0.06027+ dwvth0_n_18_rf'
 + pvth0 = '0+dpvth0_n_18_rf' lnlx = -2.854e-08 wnlx = 0 pnlx = 0
 + lnfactor = 0.032 wua = -1.88e-11 wu0 = '0.54+ dwu0_n_18_rf' pub = 3.8e-20
 + pw0 = 1.3e-09 lua = 1.5e-11 lub = 9.76e-20 wrdsw = 0
 + weta0 = 0 wetab = 0 leta0 = 0.001574 letab = 0
 + peta0 = 0 petab = 0 wpclm = 0 wvoff = -0.0004078
 + lvoff = -0.004208 pvoff = -0.0003788 wa0 = -0.04731 la0 = -0.4667
 + pa0 = -0.02649 wags = 0.004242 lags = 0.3028 pags = 0
 + wketa = 0 lketa = -0.01942 pketa = 0 wute = 0.06373
 + lute = 0 pute = 0 wvsat = 5066 lvsat = 0
 + pvsat = '0+ dpvsat_n_18_rf' lpdiblc2 = -0.004752 wat = 7067 wprt = 0
 + acm = 3 ldif = 8e-08 hdif = 2.6e-07 n = 1
 + php = 0.88 cjgate = '5e-10*(1+dcjgate_n_18_rf)' ctp = 0.000914 ptp = 0.000924
 + cta = 0.000919 pta = 0.00158 elm = 5 tlevc = 1
  **warning** (C:\synopsys\Hspice_A-2008.03\Models\.\core_rf_v2d5.mdl:253)  model b63            }device geometries will not be checked against the limits set bylmin, lmax, wmin and wmax. To enable this check, add a period(.)to the model name(i.e. enable model selector).
 .ends
 *
 *
 *     ############################################
 *     #                                          #
 *     #  018rfcmos 1.8v pmos scalable with nf    #
 *     #  hspice model                            #            
 *     #                                          #  
 *     ############################################
 *
 *
 .subckt p_l18w500_18_rf 1 2 3 4 nf=21
 *
 *
 * #### define bsim3v3 model variable #####
 *
 .param p_wr='(808.0254+2116.1626/nf-2687.8868/(nf*nf))*1e-3'
 *
 * #### define rf extension model variable #####
 *
 .param p_rg='-6.3044+287.3248/nf-996.0158/(nf*nf)'
 .param p_cd='(3.0460+2.0138*nf+0.0467*(nf*nf))*1e-15'
 .param p_cgs='(0.6197+0.0205*nf+0.0344*(nf*nf))*1e-15'
 .param p_ld='(52.1818+160.1501/nf+649.7715/(nf*nf))*1e-12'
 .param p_ls='(52.1818+160.1501/nf+649.7715/(nf*nf))*1e-12'
 .param p_djdb_a='(4.25*((nf+1)/2))*1e-12'
 .param p_djdb_p='(1.7*((nf+1)/2)+5)*1e-6'
 .param p_djdb_g='(5*nf)*1e-6'
 .param p_djsb_a='(4.25*((nf+1)/2))*1e-12'
 .param p_djsb_p='(1.7*((nf+1)/2)+5)*1e-6'
 .param p_djsb_g='(5*nf)*1e-6'
 .param p_rsub1='70.5835-147.6535/nf-144.7453/(nf*nf)'
 .param p_rsub2=1
 .param p_rsub3=1
 *
 * --------- gate network ------------------------------
 cgs_ext 21 30 'p_cgs*(1+dcgs_p_18_rf)'
 rgate 2 21 'p_rg*(1+ drgate_p_18_rf)'
 *
 * --------- drain network -----------------------------
 ldrain 1 11 p_ld
 lsource 30 3 p_ls
 cd 11 30 'p_cd* (1+ dcd_p_18_rf)'
 *
 * --------- substrate network -------------------------
 * diodes are for p-type mos transistors
 *
 djdb_area 11 12
 + bsim_diode_area
 + area = p_djdb_a
 djdb_perim 11 12
 + bsim_diode_perim
 + area = p_djdb_p
 djdb_swg 11 12
 + bsim_diode_swg
 + area = p_djdb_g
 *
 djsb_area 30 31
 + bsim_diode_area
 + area = p_djsb_a
 djsb_perim 30 31
 + bsim_diode_perim
 + area = p_djsb_p
 djsb_swg 30 31
 + bsim_diode_swg
 + area = p_djsb_g
 *
 rsub2 12 40 p_rsub2
 rsub3 31 40 p_rsub3
 rsub1 40 4 p_rsub1
 *
 * --------- ideal mos transistor ----------------------
 main 11 21 30 40
 + bsim_mos_transistor
 + l = 1.8e-07
 + w = 5e-6
 + ad = 0
 + as = 0
 + pd = 0
 + ps = 0
 + m = nf
 *
 * -------- diodes & pmosfet spice parameters ------------
 *
 .model bsim_diode_area d
 + cj0 = '0.00114*(1+ dcj_p_18_rf)'  vj = 0.762  m = 0.395  is = 3e-06  n = 1
 *
 .model bsim_diode_perim d
 + cj0 = '1.74e-10*(1+ dcjsw_p_18_rf)'  vj = 0.665  m = 0.324  is = 4.12e-11  n = 1
 *
 .model bsim_diode_swg d
 + cj0 = '4.2e-10*(1+ dcjgate_p_18_rf)'  vj = 0.665  m = 0.324  is = 4.12e-11  n = 1
 *
 .model bsim_mos_transistor pmos
 + level = 49 mobmod = 3 version = 3.2 capmod = 2 
 + binunit = 1 nqsmod = 0 noimod = 2 tox = '4.2e-09+ dtox_p_18_rf'
 + toxm = 4.2e-09 xj = 1e-07 nch = 6.131e+17 ngate = 1e+23
 + vth0 = '-0.4325+ dvth0_p_18_rf' k1 = 0.5704 k2 = 0.006973 k3 = -2.833
 + k3b = 1.326 w0 = -1.943e-07 nlx = 2.56e-07 dvt0 = 0.4885
 + dvt1 = 0.09578 dvt2 = 0.1287 dvt0w = -0.1261 dvt1w = 2.479e+04
 + dvt2w = 0.6915 lint = -1.041e-08 wint = -1.525e-07 dwg = -1.151e-07
 + dwb = -1.039e-07 u0 = '90+du0_p_18_rf' ua = 1.49e-09 ub = 4.646e-19
 + uc = -0.09587 vsat = 4.75e+04 a0 = 1.35 ags = 0.3818
 + b0 = -3.088e-07 b1 = 0 keta = 0.01044 a1 = 0
 + a2 = 1 voff = -0.1073 nfactor = 0.984 cit = -0.001067
 + cdsc = 0.0007578 cdscd = 0 cdscb = 0.0001 eta0 = 1.071
 + etab = -0.9291 dsub = 1.919 pclm = 0.553 pdiblc1 = 0.007
 + pdiblc2 = 0.008005 pdiblcb = 0 drout = 0.157 pscbe1 = 4.866e+08
 + pscbe2 = 2.8e-07 pvag = -0.888 rdsw = 202.1 prwg = 1.2
 + prwb = 0 wr = p_wr alpha0 = 0 alpha1 = 0
 + beta0 = 30 cgdo = '1.254e-10*(1+dcgdo_p_18_rf )' cgbo = 0 cgso = '1.254e-10*(1+dcgso_p_18_rf )'
 + xpart = 0 cf = '1.533e-10*(1+dcf_p_18_rf )' dlc = 7.01e-08 cgsl = '2e-11*(1+dcgsl_p_18_rf )'
 + cgdl = '2e-11*(1+dcgdl_p_18_rf )' ckappa = 0.6 clc = 1e-07 cle = 0.6
 + dwc = 2.3e-07 vfbcv = -1 noff = 1 voffcv = 0
 + acde = 1 moin = 15 noia = 3.57456993317604e+18 noib = 2.5e+03
 + noic = 2.6126e-11 em = 4.1e+07 af = 1 ef = 1.1388
 + kf = 0 lmin = 1.8e-07 lmax = 1.805e-07 wmin = 5e-06
 + wmax = 1.05e-04 xl = '-2e-09+ dxl_p_18_rf' xw = '0+ dxw_p_18_rf' js = 3e-06
 + jsw = 4.12e-11 cj = '0.00114*(1+dcj_p_18_rf)' mj = 0.395 pb = 0.762
 + cjsw = '1.74e-10*(1+dcjsw_p_18_rf)' mjsw = 0.324 tnom = 25 ute = -0.4484
 + kt1 = -0.2194 kt1l = -8.204e-09 kt2 = -0.009487 ua1 = 4.571e-09
 + ub1 = -6.026e-18 uc1 = -0.0985 at = 1.203e+04 prt = 0
 + xti = 3 ww = 1.236e-14 lw = -2.873e-16 ll = 6.635e-15
 + wl = 0 wln = 1 wwn = 1 wwl = 0
 + lln = 1 lwn = 1 lwl = 0 llc = -1.31e-14
 + lwc = 0 lwlc = 0 wlc = 0 wwc = 0
 + wwlc = 0 lvth0 = '0.0057+ dlvth0_p_18_rf' wvth0 = '-0.0148+ dwvth0_p_18_rf' lu0 = -3
 + lnfactor = 0.03 pvth0 = '0.0031+ dpvth0_p_18_rf' lnlx = -1.584e-08 wrdsw = 10.07
 + weta0 = 0 wetab = 0 wpclm = 0 wua = 2.7e-09
 + lua = -2.37e-10 pua = 5.855e-11 wub = 0 lub = 0
 + pub = 0 wuc = 0 luc = 0 puc = 0
 + wvoff = -0.009816 lvoff = -0.0009871 pvoff = -9.833e-05 wa0 = -0.04807
 + la0 = -0.281 pa0 = 0.08661 wags = -0.04177 lags = 0.04454
 + pags = -0.04076 wketa = 0 lketa = -0.012 pketa = 0
 + wute = -0.2682 lute = 0 pute = 0 wvsat = -1.42e+04
 + lvsat = 0 pvsat = '-350+ dpvsat_p_18_rf' lpdiblc2 = 0.003012 wat = -6405
 + wprt = 216.6 n = 1 php = 0.665 cta = 0.001
 + ctp = 0.000753 pta = 0.00155 ptp = 0.00124 acm = 3
 + ldif = 8e-08 rsh = 8 rd = 0 rsc = 0
 + rdc = 0 hdif = 2.6e-07 rs = 0
  **warning** (C:\synopsys\Hspice_A-2008.03\Models\.\core_rf_v2d5.mdl:393)  model b63            }device geometries will not be checked against the limits set bylmin, lmax, wmin and wmax. To enable this check, add a period(.)to the model name(i.e. enable model selector).
 .ends
 *
 *
 *
 *
 **    ############################################
 *     #                                          #
 *     # 018rfcmos 1.8v pmos scalable with length #
 *     # hspice model                             #            
 *     #                                          #  
 *     ############################################
 *
 *
 .subckt p_po7w500_18_rf 1 2 3 4 l=0.5u
 *
 .param l_um='l*1e6'
 *
 * #### define bsim3v3 model variable #####
 *
 .param p_nlx='(616.3333-1840*l_um+2266.6670*(l_um*l_um))*1e-9'
 .param p_pclm='2.7030-0.6375/l_um+0.1313/(l_um*l_um)'
 *
 * #### define rf extension model variable #####
 *
 .param p_rg='72.7967-25.7375/l_um+2.8321/(l_um*l_um)'
 .param p_cd='(15.8033+4.660*l_um-8.9333*(l_um*l_um))*1e-15'
 .param p_cgs='(3.7967-18.190*l_um+36.7333*(l_um*l_um))*1e-15'
 .param p_ld=9e-11
 .param p_ls=9e-11
 .param p_djdb_a='(4.25*((7+1)/2))*1e-12'
 .param p_djdb_p='(1.7*((7+1)/2)+5)*1e-6'
 .param p_djdb_g='(5*7)*1e-6'
 .param p_djsb_a='(4.25*((7+1)/2))*1e-12'
 .param p_djsb_p='(1.7*((7+1)/2)+5)*1e-6'
 .param p_djsb_g='(5*7)*1e-6'
 .param p_rsub1='157.35-17.0875/l_um+1.3563/(l_um*l_um)'
 .param p_rsub2=1
 .param p_rsub3=1
 *
 * --------- gate network ------------------------------
 cgs_ext 21 30 'p_cgs*(1+dcgs_p_18_rf)'
 rgate 2 21 'p_rg*(1+drgate_p_18_rf)'
 *
 * --------- drain network -----------------------------
 ldrain 1 11 p_ld
 lsource 30 3 p_ls
 cd 11 30 'p_cd*(1+dcd_p_18_rf)'
 *
 * --------- substrate network -------------------------
 * diodes are for p-type mos transistors
 *
 djdb_area 11 12
 + bsim_diode_area
 + area = p_djdb_a
 djdb_perim 11 12
 + bsim_diode_perim
 + area = p_djdb_p
 djdb_swg 11 12
 + bsim_diode_swg
 + area = p_djdb_g
 *
 djsb_area 30 31
 + bsim_diode_area
 + area = p_djsb_a
 djsb_perim 30 31
 + bsim_diode_perim
 + area = p_djsb_p
 djsb_swg 30 31
 + bsim_diode_swg
 + area = p_djsb_g
 *
 rsub2 12 40 p_rsub2
 rsub3 31 40 p_rsub3
 rsub1 40 4 p_rsub1
 *
 * --------- ideal mos transistor ----------------------
 main 11 21 30 40
 + bsim_mos_transistor
 + l = l
 + w = 5u
 + ad = 0
 + as = 0
 + pd = 0
 + ps = 0
 + m = 7
 *
 * -------- diodes & pmosfet spice parameters ------------
 *
 .model bsim_diode_area d
 + cj0 = '0.00114*(1+ dcj_p_18_rf  )'  vj = 0.762  m = 0.395  is = 3e-06  n = 1
 *
 .model bsim_diode_perim d
 + cj0 = '1.74e-10*(1+ dcjsw_p_18_rf)'  vj = 0.665  m = 0.324  is = 4.12e-11  n = 1
 *
 .model bsim_diode_swg d
 + cj0 = '4.2e-10*(1+ dcjgate_p_18_rf)'  vj = 0.665  m = 0.324  is = 4.12e-11  n = 1
 *
 .model bsim_mos_transistor pmos
 + level = 49 mobmod = 3 version = 3.2 capmod = 2
 + binunit = 1 nqsmod = 0 noimod = 2 tox = '4.2e-09+dtox_p_18_rf'
 + toxm = 4.2e-09 xj = 1e-07 nch = 6.131e+17 ngate = 1e+23
 + vth0 = '-0.4325+dvth0_p_18_rf' k1 = 0.5704 k2 = 0.006973 k3 = -2.833
 + k3b = 1.326 w0 = -1.943e-07 nlx = p_nlx dvt0 = 0.4885
 + dvt1 = 0.07578 dvt2 = 0.1287 dvt0w = -0.1261 dvt1w = 2.479e+04
 + dvt2w = 0.6915 lint = -1.041e-08 wint = -1.525e-07 dwg = -1.151e-07
 + dwb = -1.039e-07 u0 = '113+ du0_p_18_rf' ua = 1.54e-09 ub = 6.46e-20
 + uc = -0.09587 vsat = 4.55e+04 a0 = 1.35 ags = 0.3818
 + b0 = -3.088e-07 b1 = 0 keta = 0.01044 a1 = 0
 + a2 = 1 voff = -0.1073 nfactor = 0.984 cit = -0.001067
 + cdsc = 0.0007578 cdscd = 0 cdscb = 0.0001 eta0 = 1.071
 + etab = -0.9291 dsub = 1.919 pclm = p_pclm pdiblc1 = 0.005
 + pdiblc2 = 0.01401 pdiblcb = 0 drout = 1.457 pscbe1 = 4.866e+08
 + pscbe2 = 2.8e-07 pvag = 1.162 rdsw = 202.1 prwg = 0
 + prwb = 0 wr = 1 alpha0 = 0 alpha1 = 0
 + beta0 = 30 cgdo = '1.254e-10*(1+dcgdo_p_18_rf )' cgbo = 0 cgso = '1.254e-10*(1+ dcgso_p_18_rf)'
 + xpart = 0 cf = '1.533e-10*(1+dcf_p_18_rf)' dlc = 7.01e-08 cgsl = '2e-11*(1+ dcgsl_p_18_rf)'
 + cgdl = '2e-11*(1+dcgdl_p_18_rf)' ckappa = 0.6 clc = 1e-07 cle = 0.6
 + dwc = 0 vfbcv = -1 noff = 1 voffcv = 0
 + acde = 1 moin = 15 noia = 3.57456993317604e+18 noib = 2.5e+03
 + noic = 2.6126e-11 em = 4.1e+07 af = 1 ef = 1.1388
 + kf = 0 lmin = 2e-07 lmax = 5e-07 wmin = 5e-06
 + wmax = 3.5e-05 xl = '-2e-09+dxl_p_18_rf' xw = '0+ dxw_p_18_rf' js = 3e-06
 + jsw = 4.12e-11 cj = '0.00114*(1+ dcj_p_18_rf  )' mj = 0.395 pb = 0.762
 + cjsw = '1.74e-10*(1+ dcjsw_p_18_rf  )' mjsw = 0.324 tnom = 25 ute = -0.4484
 + kt1 = -0.2194 kt1l = -8.204e-09 kt2 = -0.009487 ua1 = 4.571e-09
 + ub1 = -6.026e-18 uc1 = -0.0985 at = 1.203e+04 prt = 0
 + xti = 3 ww = 1.236e-14 lw = -2.873e-16 ll = 6.635e-15
 + wl = 0 wln = 1 wwn = 1 wwl = 0
 + lln = 1 lwn = 1 lwl = 0 llc = -1.31e-14
 + lwc = 0 lwlc = 0 wlc = 0 wwc = 0
 + wwlc = 0 lvth0 = '0.0057+dlvth0_p_18_rf' wvth0 = '-0.0148+dwvth0_p_18_rf' lu0 = -3
 + lnfactor = 0.03 pvth0 = '0.0031+dpvth0_p_18_rf' lnlx = -1.584e-08 wrdsw = 10.07
 + weta0 = 0 wetab = 0 wpclm = 0 wua = 2.7e-09
 + lua = -2.37e-10 pua = 5.855e-11 wub = 0 lub = 0
 + pub = 0 wuc = 0 luc = 0 puc = 0
 + wvoff = -0.009816 lvoff = -0.0009871 pvoff = -9.833e-05 wa0 = -0.04807
 + la0 = -0.281 pa0 = 0.08661 wags = -0.04177 lags = 0.04454
 + pags = -0.04076 wketa = 0 lketa = -0.012 pketa = 0
 + wute = -0.2682 lute = 0 pute = 0 wvsat = -1.42e+04
 + lvsat = 0 pvsat = '-350+dpvsat_p_18_rf' lpdiblc2 = 0.003012 wat = -6405
 + wprt = 216.6 n = 1 php = 0.665 cta = 0.001
 + ctp = 0.000753 pta = 0.00155 ptp = 0.00124 acm = 3
 + ldif = 8e-08 rsh = 8 rd = 0 rsc = 0
 + rdc = 0 hdif = 2.6e-07 rs = 0
  **warning** (C:\synopsys\Hspice_A-2008.03\Models\.\core_rf_v2d5.mdl:537)  model b63            }device geometries will not be checked against the limits set bylmin, lmax, wmin and wmax. To enable this check, add a period(.)to the model name(i.e. enable model selector).
 .ends
 * 
 .endl tt
 .lib 'io_rf_v2d4.lib' tt                          * tt, ff, ss, fnsp, snfp

 .param
 *
 + dcgs_n_33_rf=0
 + drgate_n_33_rf=0
 + dcd_n_33_rf=0
 + dcj_n_33_rf=0.0000e+00
 + dcjsw_n_33_rf=0.0000e+00
 + dcjgate_n_33_rf=0.0000e+00
 + dcf_n_33_rf=0.0000e+00
 *
 + dtox_n_33_rf=0
 + dlint_n_33_rf=0
 + dwint_n_33_rf=0
 + dvth0_n_33_rf=0
 + dcgdo_n_33_rf=0
 + dcgso_n_33_rf=0
 *
 + dcgs_p_33_rf=0
 + drgate_p_33_rf=0
 + dcd_p_33_rf=0
 + dcj_p_33_rf=0.0000e+00
 + dcjsw_p_33_rf=0.0000e+00
 + dcjgate_p_33_rf=0.0000e+00
 + dcf_p_33_rf=0.0000e+00
 *
 + dtox_p_33_rf=0
 + dlint_p_33_rf=0
 + dwint_p_33_rf=0
 + dvth0_p_33_rf=0
 + dcgdo_p_33_rf=0
 + dcgso_p_33_rf=0
 .include './io_rf_v2d4.mdl'
 *     ############################################
 *     #                                          #
 *     #  018rfcmos 3.3v nmos scalable with nf    #
 *     #  hspice model                            #
 *     #                                          #  
 *     ############################################
 *
 *
 .subckt n_l34w500_33_rf 1 2 3 4 nf=21
 *
 * #### define rf extension model varable #####
 *
 .param p_rg='-7.0913+216.04/nf-411.06/(nf*nf)'
 .param p_cd='(0.306+0.1838*nf+0.0049*(nf*nf))*1e-15'
 .param p_cgs=2e-15
 .param p_ld=1e-11
 .param p_ls=6e-11
 .param p_djdb_a='(4.25*((nf+1)/2))*1e-12'
 .param p_djdb_p='(1.7*((nf+1)/2)+5)*1e-6'
 .param p_djdb_g='(5*nf)*1e-6'
 .param p_djsb_a='(4.25*((nf+1)/2))*1e-12'
 .param p_djsb_p='(1.7*((nf+1)/2)+5)*1e-6'
 .param p_djsb_g='(5*nf)*1e-6'
 .param p_rsub1='70.9+224.53/nf-396.9/(nf*nf)'
 .param p_rsub2=2
 .param p_rsub3=2
 *
 * --------- gate network ------------------------------
 cgs_ext 21 30 'p_cgs*(1+dcgs_n_33_rf)'
 rgate 2 21 'p_rg*(1+drgate_n_33_rf)'
 *
 * --------- drain network -----------------------------
 ldrain 1 11 p_ld
 lsource 30 3 p_ls
 cd 11 30 'p_cd*(1+dcd_n_33_rf)'
 *
 * --------- substrate network -------------------------
 *
 djdb_area 12 11
 + bsim_diode_area
 + area = p_djdb_a
 djdb_perim 12 11
 + bsim_diode_perim
 + area = p_djdb_p
 djdb_swg 12 11
 + bsim_diode_swg
 + area = p_djdb_g
 *
 djsb_area 31 30
 + bsim_diode_area
 + area = p_djsb_a
 djsb_perim 31 30
 + bsim_diode_perim
 + area = p_djsb_p
 djsb_swg 31 30
 + bsim_diode_swg
 + area = p_djsb_g
 *
 *
 rsub2 12 40 p_rsub2
 rsub3 31 40 p_rsub3
 rsub1 40 4 p_rsub1
 *
 * --------- ideal mos transistor ----------------------
 main 11 21 30 40
 + bsim_mos_transistor
 + l = 3.4e-07
 + w = 5e-06
 + ad = 0
 + as = 0
 + pd = 0
 + ps = 0
 + m = nf
 *

 .model bsim_diode_area d
 + cj0 = '0.0007673*(1+dcj_n_33_rf )'  vj = 0.7131  m = 0.3299 is = 1e-05 n = 1
 *
 .model bsim_diode_perim d
 + cj0 = '1.089e-10*(1+ dcjsw_n_33_rf)'  vj = 0.7131 m = 0.1037 is = 5.1e-11 n = 1
 *
 .model bsim_diode_swg d
 + cj0 = '2.9e-10*(1+dcjgate_n_33_rf)'  vj = 0.7131 m = 0.1037 is = 5.1e-11 n = 1
 *
 .model bsim_mos_transistor nmos
 + level = 49  version = 3.2 mobmod = 1 binunit = 2 
 + capmod = 3 nqsmod = 0 tox = '7e-09+ dtox_n_33_rf' xj = 2.5e-07
 + nch = 1.7e+17 rsh = 8 lint = '0+ dlint_n_33_rf' wint = '0+ dwint_n_33_rf'
 + dwg = 3.553e-15 dwb = 6.2e-09 vth0 = '0.5924+dvth0_n_33_rf' k1 = 0.7138
 + k2 = -0.02583 k3 = 62 dvt0 = 4.75 dvt1 = 0.634
 + dvt2 = -0.1139 dvt0w = 0.15 dvt1w = 5.95e+05 dvt2w = 0
 + nlx = 1.372e-07 w0 = 5.68e-06 k3b = 32 vsat = 1.052e+05
 + ua = -4.855e-10 ub = 2.265e-18 uc = 5.518e-11 u0 = 0.03913
 + a0 = 0.651 keta = 0.005 a1 = 0.1 a2 = 0.99 ags = 0.06
 + b0 = 2e-08 b1 = 9e-07 voff = -0.1361 nfactor = 1
 + cit = 0 cdsc = 0.00024 cdscb = 0 cdscd = 0
 + eta0 = 0.02 etab = -0.0015 dsub = 0.201 pclm = 1.21
 + pdiblc1 = 0.025 pdiblc2 = 0.002 pdiblcb = 0 drout = 0.46
 + pscbe1 = 4.04e+08 pscbe2 = 1e-05 pvag = 0.2 delta = 0.02
 + rdsw = 495.9 prwb = 0.05715 prwg = 0.088 wr = 1.01
 + alpha0 = 0 alpha1 = 0 beta0 = 30 cgdo = '2.7e-10*(1+dcgdo_n_33_rf)'
 + cgso = '2.7e-10*(1+dcgso_n_33_rf)' cgbo = 0 xpart = 0 cf = '1.392e-10*(1+dcf_n_33_rf)'
 + xl = 2.5e-08 xw = 0 cj = '0.0007673*(1+dcj_n_33_rf )' mj = 0.3299
 + pb = 0.7131 cjsw = '1.089e-10*(1+dcjsw_n_33_rf )' mjsw = 0.1037 js = 1e-05
 + jsw = 5.1e-11 tnom = 25 kt1 = -0.3166 kt2 = -0.04461
 + at = 500 ute = -1.601 ua1 = 4.203e-11 ub1 = 3.8e-19
 + uc1 = 2.8e-11 kt1l = 0 prt = -271.3 lln = 1
 + lwn = 1 wln = 1 wwn = 1 ll = 1.214e-14 lw = 0
 + lwl = -2.886e-22 wl = 0 ww = -2.01e-16 wwl = -1.502e-21
 + acm = 3 ldif = 0 hdif = 3.2e-07 lnfactor = 1e-07
 + lu0 = 0 lvsat = -0.0045 lua = 0 lub = 0 php = 0.4347
 + cta = 0.001082 ctp = 0.0007482 pta = 0.001822 ptp = 0.002009
 + elm = 5 cjgate = '2.9e-10*(1+dcjgate_n_33_rf )' tlevc = 1 noff = 50 dwc = 0
 + lmin = 3.4e-07 lmax = 3.405e-07 wmin = 5e-06 wmax = 1.05e-04 
 + noimod= 2 noia= 1.2386e+21 noib= 44531.5473
 + noic= -1.05e-14  ef= 0.9396  em= 2063059.9427
  **warning** (C:\synopsys\Hspice_A-2008.03\Models\.\io_rf_v2d4.mdl:105)  model b63            }device geometries will not be checked against the limits set bylmin, lmax, wmin and wmax. To enable this check, add a period(.)to the model name(i.e. enable model selector).
 *
 * ##### end of rf nmosfet structure #####
 *
 .ends
 *
 *     ############################################
 *     #                                          #
 *     # 018rfcmos 3.3v nmos scalable with length #
 *     # hspice model                             #
 *     #                                          #
 *     ############################################
 *
 *
 .subckt n_po7w500_33_rf 1 2 3 4 l=0.8u
 *
 .param l_um='l*1e6'
 *
 * #### define rf extension model varable #####
 *
 .param p_rg='33.476-13.353/l_um+2.0572/(l_um*l_um)'
 .param p_cd='(20.609-34.728*l_um+19.022*(l_um*l_um))*1e-15'
 .param p_cgs=2e-15
 .param p_ld=1e-11
 .param p_ls=6e-11
 .param p_djdb_a='(4.25*((7+1)/2))*1e-12'
 .param p_djdb_p='(1.7*((7+1)/2)+5)*1e-6'
 .param p_djdb_g='(5*7)*1e-6'
 .param p_djsb_a='(4.25*((7+1)/2))*1e-12'
 .param p_djsb_p='(1.7*((7+1)/2)+5)*1e-6'
 .param p_djsb_g='(5*7)*1e-6'
 .param p_rsub1=70
 .param p_rsub2=2
 .param p_rsub3=2
 *
 * --------- gate network ------------------------------
 cgs_ext 21 30 'p_cgs*(1+dcgs_n_33_rf)'
 rgate 2 21 'p_rg*(1+drgate_n_33_rf)'
 *
 * --------- drain network -----------------------------
 ldrain 1 11 p_ld
 lsource 30 3 p_ls
 cd 11 30 'p_cd*(1+dcd_n_33_rf)'
 *
 * --------- substrate network -------------------------
 *
 djdb_area 12 11
 + bsim_diode_area
 + area = p_djdb_a
 djdb_perim 12 11
 + bsim_diode_perim
 + area = p_djdb_p
 djdb_swg 12 11
 + bsim_diode_swg
 + area = p_djdb_g
 *
 djsb_area 31 30
 + bsim_diode_area
 + area = p_djsb_a
 djsb_perim 31 30
 + bsim_diode_perim
 + area = p_djsb_p
 djsb_swg 31 30
 + bsim_diode_swg
 + area = p_djsb_g
 *
 rsub2 12 40 p_rsub2
 rsub3 31 40 p_rsub3
 rsub1 40 4 p_rsub1
 *
 * --------- ideal mos transistor ----------------------
 main 11 21 30 40
 + bsim_mos_transistor
 + l = l
 + w = 5u
 + ad = 0
 + as = 0
 + pd = 0
 + ps = 0
 + m = 7
 *
 * -------- diodes & nmosfet spice parameters ------------
 *
 .model bsim_diode_area d
 + cj0 = '0.0007673*(1+ dcj_n_33_rf )' vj = 0.7131 m = 0.3299 is = 1e-05 n = 1
 *
 .model bsim_diode_perim d
 + cj0 = '1.089e-10*(1+dcjsw_n_33_rf )' vj = 0.7131 m = 0.1037 is = 5.1e-11 n = 1
 *
 .model bsim_diode_swg d
 + cj0 = '2.9e-10*(1+ dcjgate_n_33_rf )' vj = 0.7131 m = 0.1037 is = 5.1e-11 n = 1
 *
 .model bsim_mos_transistor nmos
 + level = 49 version = 3.2 mobmod = 1 binunit = 2
 + capmod = 3 nqsmod = 0 tox = '7e-09+dtox_n_33_rf' xj = 2.5e-07
 + nch = 1.7e+17 rsh = 8 lint = '0+ dlint_n_33_rf' wint = '0+ dwint_n_33_rf' dwg = 3.553e-15
 + dwb = 6.2e-09 vth0 = '0.6124+dvth0_n_33_rf' k1 = 0.7138 k2 = -0.02583 k3 = 62
 + dvt0 = 4.75 dvt1 = 0.634 dvt2 = -0.1139 dvt0w = 0.15
 + dvt1w = 5.95e+05 dvt2w = 0 nlx = 1.372e-07 w0 = 5.68e-06
 + k3b = 32 vsat = 1.052e+05 ua = -4.855e-10 ub = 2.065e-18
 + uc = 5.518e-11 u0 = 0.03913 a0 = 1.042 keta = 0.005
 + a1 = 0.1 a2 = 0.99 ags = 0.1603 b0 = 2e-08
 + b1 = 9e-07 voff = -0.1361 nfactor = 1 cit = 0
 + cdsc = 0.00024 cdscb = 0 cdscd = 0 eta0 = 0.02
 + etab = -0.0015 dsub = 0.201 pclm = 1.01 pdiblc1 = 0.025
 + pdiblc2 = 0.002 pdiblcb = 0 drout = 0.46 pscbe1 = 4.04e+08
 + pscbe2 = 1e-05 pvag = 0 delta = 4.441e-19 rdsw = 495.9
 + prwb = 0.05715 prwg = 0.088 wr = 1.01 alpha0 = 0
 + alpha1 = 0 beta0 = 30 cgdo = '2.7e-10*(1+dcgdo_n_33_rf)' cgso = '2.7e-10*(1+dcgso_n_33_rf )'
 + cgbo = 0 xpart = 0 cf = '1.392e-10*(1+dcf_n_33_rf)' xl = 2.5e-08
 + xw = 0 cj = '0.0007673*(1+ dcj_n_33_rf )' mj = 0.3299 pb = 0.7131
 + cjsw = '1.089e-10*(1+ dcjsw_n_33_rf )' mjsw = 0.1037 js = 1e-05 jsw = 5.1e-11
 + tnom = 25 kt1 = -0.3166 kt2 = -0.04461 at = 500
 + ute = -1.601 ua1 = 4.203e-11 ub1 = 3.8e-19 uc1 = 2.8e-11
 + kt1l = 0 prt = -271.3 lln = 1 lwn = 1 wln = 1
 + wwn = 1 ll = 1.214e-14 lw = 0 lwl = -2.886e-22 wl = 0
 + ww = -2.01e-16 wwl = -1.502e-21 acm = 3 ldif = 0
 + hdif = 3.2e-07 lnfactor = 1e-07 lu0 = 0 lvsat = -0.0045
 + lua = 0 lub = 0 php = 0.4347 cta = 0.001082
 + ctp = 0.0007482 pta = 0.001822 ptp = 0.002009 elm = 5
 + cjgate = '2.9e-10*(1+ dcjgate_n_33_rf )' tlevc = 1 noff = 50 dwc = 1e-07
 + lmin = 3.4e-07 lmax = 8e-07 wmin = 5e-06 wmax = 3.5e-05
 + noimod= 2 noia= 1.2386e+21 noib= 44531.5473
 + noic= -1.05e-14  ef= 0.9396  em= 2063059.9427
  **warning** (C:\synopsys\Hspice_A-2008.03\Models\.\io_rf_v2d4.mdl:228)  model b63            }device geometries will not be checked against the limits set bylmin, lmax, wmin and wmax. To enable this check, add a period(.)to the model name(i.e. enable model selector).
 *
 * ##### end of rf nmosfet structure #####
 *
 .ends
 *
 *     ############################################
 *     #                                          #
 *     # 018rfcmos 3.3v pmos scalable with nf     #
 *     # hspice model                             #
 *     #                                          #
 *     ############################################
 *
 *
 .subckt p_l34w500_33_rf 1 2 3 4 nf=21
 *
 *
 * #### define rf extension model varable #####
 *
 .param p_rg='2.9978+41.357/nf-36.796/(nf*nf)'
 .param p_cd='(9.4819-0.5777*nf+0.0508*(nf*nf))*1e-15'
 .param p_cgs=1e-15
 .param p_ld=1e-11
 .param p_ls=6e-11
 .param p_djdb_a='(4.25*((nf+1)/2))*1e-12'
 .param p_djdb_p='(1.7*((nf+1)/2)+5)*1e-6'
 .param p_djdb_g='(5*nf)*1e-6'
 .param p_djsb_a='(4.25*((nf+1)/2))*1e-12'
 .param p_djsb_p='(1.7*((nf+1)/2)+5)*1e-6'
 .param p_djsb_g='(5*nf)*1e-6'
 .param p_rsub1='20.979+437.18/nf-705.05/(nf*nf)'
 .param p_rsub2=2
 .param p_rsub3=2
 *
 * --------- gate network ------------------------------
 cgs_ext 21 30 'p_cgs*(1+dcgs_p_33_rf)'
 rgate 2 21 'p_rg*(1+drgate_p_33_rf)'
 *
 * --------- drain network -----------------------------
 ldrain 1 11 p_ld
 lsource 30 3 p_ls
 cd 11 30 'p_cd*(1+dcd_p_33_rf)'
 *
 * --------- substrate network -------------------------
 * diodes are for p-type mos transistors
 *
 djdb_area 11 12
 + bsim_diode_area
 + area = p_djdb_a
 djdb_perim 11 12
 + bsim_diode_perim
 + area = p_djdb_p
 djdb_swg 11 12
 + bsim_diode_swg
 + area = p_djdb_g
 *
 djsb_area 30 31
 + bsim_diode_area
 + area = p_djsb_a
 djsb_perim 30 31
 + bsim_diode_perim
 + area = p_djsb_p
 djsb_swg 30 31
 + bsim_diode_swg
 + area = p_djsb_g
 *
 rsub2 12 40 p_rsub2
 rsub3 31 40 p_rsub3
 rsub1 40 4 p_rsub1
 *
 * --------- ideal mos transistor ----------------------
 main 11 21 30 40
 + bsim_mos_transistor
 + l = 3.4e-7
 + w = 5e-6
 + ad = 0
 + as = 0
 + pd = 0
 + ps = 0
 + m = nf
 *
 .model bsim_diode_area d
 + cj0 = '0.0012*(1+ dcj_p_33_rf)' mjsw = 0.4097 vj = 0.7618 is = 9e-05 n = 1
 *
 .model bsim_diode_perim d
 + cj0 = '2.243e-10*(1+ dcjsw_p_33_rf)' vj = 0.7618 mjsw = 0.4745 is = 4.9e-12 n = 1
 *
 .model bsim_diode_swg d
 + cj0 = '4.2e-10*(1+dcjgate_p_33_rf)' vj = 0.7618 mjsw = 0.4745 is = 4.9e-12 n = 1
 *
 .model bsim_mos_transistor pmos
 + level = 49 version = 3.2 mobmod = 1 capmod = 3
 + nqsmod = 0 tox = '7e-09+dtox_p_33_rf' xj = 1.8e-07 nch = 4.31e+17
 + rsh = 8 lint = '2.24e-08+dlint_p_33_rf' wint = '3.361e-08+dwint_p_33_rf' dwg = -1.437e-08
 + dwb = 5.984e-09 vth0 = '-0.7104+dvth0_p_33_rf' k1 = 0.7667 k2 = 0.05429
 + k3 = 2.089 dvt0 = 7.395 dvt1 = 0.6635 dvt2 = 0.007805
 + dvt0w = 1.797 dvt1w = 2.876e+06 dvt2w = 0.1026 nlx = 5e-08
 + w0 = 2.125e-07 k3b = 1.003 vsat = 9.09e+04 ua = -8e-13
 + ub = 1.82e-18 uc = -3.65e-11 u0 = 0.008064 a0 = 0.8
 + keta = -0.01035 a1 = 0.01 a2 = 0.99 ags = 0.3138
 + b0 = 0 b1 = 1e-06 voff = -0.1239 nfactor = 0.4964
 + cit = 0.0005334 cdsc = 0.003166 cdscb = 0.002463 cdscd = 0
 + eta0 = 0.2 etab = -0.01893 dsub = 0.9052 pclm = 0.8
 + pdiblc1 = 0.03524 pdiblc2 = 0.02018 pdiblcb = 0.1478 drout = 0.5
 + pscbe1 = 4.643e+08 pscbe2 = 1.07e-05 pvag = 0 delta = 0.02
 + rdsw = 467 prwb = 0 prwg = 0 wr = 1.1
 + alpha0 = 0 beta0 = 30 cgdo = '2.6e-10*(1+dcgdo_p_33_rf)' cgso = '2.6e-10*(1+dcgso_p_33_rf)'
 + cgbo = 0 xpart = 0 cf = '1.392e-10*(1+dcf_p_33_rf)' xl = -2e-08
 + xw = 0 cj = '0.0012*(1+dcj_p_33_rf)' mj = 0.4097 pb = 0.7618 cjsw = '2.243e-10*(1+dcjsw_p_33_rf)'
 + mjsw = 0.4745 js = 9e-05 jsw = 4.9e-12 tnom = 25
 + kt1 = -0.3346 kt2 = -0.05747 at = 4.95e+04 ute = -1.128
 + ua1 = 1.402e-09 ub1 = -3.417e-18 uc1 = -1.393e-10 kt1l = 1e-08
 + prt = 0 lln = 1 lwn = 1 wln = 1 wwn = 1
 + ll = 0 lw = 0 lwl = 0 wl = 0
 + ww = 0 wwl = 0 lmin = 3.4e-07 lmax = 3.405e-07
 + wmin = 5e-06 wmax = 1.05e-04 lua = 0 lub = 0
 + wua = 0 lpclm = 0 lvth0 = 0 php = 0.9297
 + cta = 0.0009969 ctp = 0.0007119 pta = 0.001504 ptp = 0.001216
 + elm = 10 tlevc = 1 acm = 3 hdif = 3.2e-07
 + lu0 = 0.0004 wvsat = 0 lvsat = 0 wu0 = 0.001
 + voffcv = 0 dwc = 1e-07 noff = 20
 + noimod = 2 noia= 4.8632e+19  noib= 142700
 + noic= 1.04e-11  ef= 1.117  em= 5015000
  **warning** (C:\synopsys\Hspice_A-2008.03\Models\.\io_rf_v2d4.mdl:346)  model b63            }device geometries will not be checked against the limits set bylmin, lmax, wmin and wmax. To enable this check, add a period(.)to the model name(i.e. enable model selector).
 .ends
 *
 *     ############################################
 *     #                                          #
 *     # 018rfcmos 3.3v pmos scalable with length #
 *     # hspice model                             #
 *     #                                          #
 *     ############################################
 *
 *
 .subckt p_po7w500_33_rf 1 2 3 4 l=0.8u
 *
 *
 .param l_um='l*1e6'
 *
 * #### define rf extension model varable #####
 *
 .param p_rg='192.37-151.74/l_um+30.28/(l_um*l_um)'
 .param p_cd='(33.148-64.815*l_um+37.037*(l_um*l_um))*1e-15'
 .param p_cgs=1e-15
 .param p_ld=1e-11
 .param p_ls=6e-11
 .param p_djdb_a='(4.25*((7+1)/2))*1e-12'
 .param p_djdb_p='(1.7*((7+1)/2)+5)*1e-6'
 .param p_djdb_g='(5*7)*1e-6'
 .param p_djsb_a='(4.25*((7+1)/2))*1e-12'
 .param p_djsb_p='(1.7*((7+1)/2)+5)*1e-6'
 .param p_djsb_g='(5*7)*1e-6'
 .param p_rsub1=70
 .param p_rsub2=2
 .param p_rsub3=2
 *
 * --------- gate network ------------------------------
 cgs_ext 21 30 'p_cgs*(1+dcgs_p_33_rf)'
 rgate 2 21 'p_rg*(1+drgate_p_33_rf)'
 *
 * --------- drain network -----------------------------
 ldrain 1 11 p_ld
 lsource 30 3 p_ls
 cd 11 30 'p_cd*(1+dcd_p_33_rf)'
 *
 * --------- substrate network -------------------------
 * diodes are for p-type mos transistors
 *
 djdb_area 11 12
 + bsim_diode_area
 + area = p_djdb_a
 djdb_perim 11 12
 + bsim_diode_perim
 + area = p_djdb_p
 djdb_swg 11 12
 + bsim_diode_swg
 + area = p_djdb_g
 *
 djsb_area 30 31
 + bsim_diode_area
 + area = p_djsb_a
 djsb_perim 30 31
 + bsim_diode_perim
 + area = p_djsb_p
 djsb_swg 30 31
 + bsim_diode_swg
 + area = p_djsb_g
 *
 rsub2 12 40 p_rsub2
 rsub3 31 40 p_rsub3
 rsub1 40 4 p_rsub1
 *
 * --------- ideal mos transistor ----------------------
 main 11 21 30 40
 + bsim_mos_transistor
 + l = l
 + w = 5u
 + ad = 0
 + as = 0
 + pd = 0
 + ps = 0
 + m = 7
 *
 * -------- diodes & pmosfet spice parameters ------------
 *
 .model bsim_diode_area d
 + cj0 = '0.0012*(1+dcj_p_33_rf)' mjsw = 0.4097 vj = 0.7618 is = 9e-05 n = 1
 *
 .model bsim_diode_perim d
 + cj0 = '2.243e-10*(1+dcjsw_p_33_rf)'  vj = 0.7618 mjsw = 0.4745 is = 4.9e-12 n = 1
 *
 .model bsim_diode_swg d
 + cj0 = '4.2e-10*(1+dcjgate_p_33_rf)'  vj = 0.7618 mjsw = 0.4745 is = 4.9e-12 n = 1
 *
 .model bsim_mos_transistor pmos
 + level = 49 version = 3.2 mobmod = 1 capmod = 3 nqsmod = 0 
 + tox = '7e-09+dtox_p_33_rf' xj = 1.8e-07 nch = 4.31e+17 rsh = 8
 + lint = '2.24e-08+dlint_p_33_rf' wint = '3.361e-08+dwint_p_33_rf' dwg = -1.437e-08 dwb = 5.984e-09
 + vth0 = '-0.7104+dvth0_p_33_rf' k1 = 0.7667 k2 = 0.05429 k3 = 2.089 
 + dvt0 = 7.395 dvt1 = 0.6635 dvt2 = 0.007805 dvt0w = 1.797 
 + dvt1w = 2.876e+06 dvt2w = 0.1026 nlx = 5e-08 w0 = 2.125e-07 
 + k3b = 1.003 vsat = 1.209e+05 ua = -8e-13 ub = 1.82e-18
 + uc = -3.65e-11 u0 = 0.008064 a0 = 1.2 keta = -0.01035
 + a1 = 0.01 a2 = 0.99 ags = 0.3138 b0 = 0
 + b1 = 1e-06 voff = -0.1239 nfactor = 0.4964 cit = 0.0005334
 + cdsc = 0.003166 cdscb = 0.002463 cdscd = 0 eta0 = 0.2
 + etab = -0.01893 dsub = 0.9052 pclm = 0.8 pdiblc1 = 0.03524
 + pdiblc2 = 0.02018 pdiblcb = 0.1478 drout = 0.5 pscbe1 = 4.643e+08
 + pscbe2 = 1.07e-05 pvag = 0 delta = 0.02 rdsw = 467
 + prwb = 0 prwg = 0 wr = 1.1 alpha0 = 0
 + beta0 = 30 cgdo = '2.6e-10*(1 + dcgdo_p_33_rf)' cgso = '2.6e-10*(1 + dcgso_p_33_rf)' cgbo = 0
 + xpart = 0 cf = '1.392e-10*(1+ dcf_p_33_rf)' xl = -2e-08 xw = 0
 + cj = '0.0012*(1+ dcj_p_33_rf)' mj = 0.4097 pb = 0.7618 cjsw = '2.243e-10*(1 + dcjsw_p_33_rf)'
 + mjsw = 0.4745 js = 9e-05 jsw = 4.9e-12 tnom = 25
 + kt1 = -0.3346 kt2 = -0.05747 at = 4.95e+04 ute = -1.128
 + ua1 = 1.402e-09 ub1 = -3.417e-18 uc1 = -1.393e-10 kt1l = 1e-08
 + prt = 0 lln = 1 lwn = 1 wln = 1 wwn = 1
 + ll = 0 lw = 0 lwl = 0 wl = 0 ww = 0
 + wwl = 0 lmin = 3.4e-07 lmax = 8e-07 wmin = 5e-06
 + wmax = 3.5e-05 lua = 0 lub = 0 wua = 0 lpclm = 0
 + lvth0 = 0 php = 0.9297 cta = 0.0009969 ctp = 0.0007119
 + pta = 0.001504 ptp = 0.001216 elm = 10 tlevc = 1
 + acm = 3 hdif = 3.2e-07 lu0 = 0.0004 wvsat = 0
 + wu0 = 0.001 voffcv = 0 dwc = 1e-07 noff = 20
 + noimod = 2 noia= 4.8632e+19  noib= 142700
 + noic= 1.04e-11  ef= 1.117  em= 5015000
  **warning** (C:\synopsys\Hspice_A-2008.03\Models\.\io_rf_v2d4.mdl:469)  model b63            }device geometries will not be checked against the limits set bylmin, lmax, wmin and wmax. To enable this check, add a period(.)to the model name(i.e. enable model selector).
 *
 * ##### end of rf pmosfet structure #####
 *
 .ends
 * 
 .endl tt
 .lib 'l_slcr20k_rf_v2d3.lib' typ                  * typ, max, min

 .param
 *
 + dw_l_rf=0
 + dt_l_rf=0
 + drs_l_rf=0
 + dcp_l_rf=0
 + dcox_l_rf=0
 + dls_l_rf=0
 *
 .include './l_slcr20k_rf_v2d3.mdl'
 *     ############################################
 *     #                                          #
 *     #  018rfcmos circular inductor hspice model#
 *     #                                          #  
 *     ############################################
 *
 * //////port 1 connects to top metal (m6)//////////////
 * //////port 2 connects to underpasss metal (m5)///////
 * //////the node 999 connects to ground////////////////
 *
 .subckt l_slcr20k_rf 1 2 999 d=148u n=5.5 w=6u
 *
 *
 .param d_um='(d/2)*1e6'
 .param w_um='w*1e6+ dw_l_rf'
 .param s_um='2- dw_l_rf'
 .param t_um='2* (1+dt_l_rf)'
 *
 *
 *
 .param l_spiral='0.5*(n*3.14159*(2*(2*d_um+w_um)+(2*n-1)*(w_um+s_um)))+(n+0.5)*(w_um+s_um)'
 .param d_plus='(w_um+s_um)*(3*n-2*(n-0.5)-1)*(n+0.5)/(3*(2*n-n-0.5))'
 .param p_lsef='log(2*l_spiral/(w_um+t_um))-0.2'
 .param p_m_neg='0.4418*n'
 .param p_m_d1='log(sqrt(1+(l_spiral/(4*n*d_plus))*(l_spiral/(4*n*d_plus)))+l_spiral/(4*n*d_plus))'
 .param p_m_d2='sqrt(1+(4*n*d_plus/l_spiral)*(4*n*d_plus/l_spiral))-4*n*d_plus/l_spiral'
 .param p_ls='(2*l_spiral*(p_lsef-p_m_neg+0.97*(n-1)*(p_m_d1-p_m_d2))+2923-3700*n+507*n*n)*1e-13'
 .param p_rs='1+0.02*(l_spiral/w_um)+n*(0.34-0.0002273*l_spiral)'
 .param p_cp='(0.0402*(n-0.5)*w_um*w_um)*1e-15'
 .param p_cox='(0.0019725*(2*l_spiral*w_um+3.14159*w_um*w_um))*1e-15'
 .param p_csub1='((0.24+0.098*n)*d_um)*1e-15'
 .param p_csub2='((0.2205+0.055*n)*d_um)*1e-15'
 .param p_rsub1='530+49153/(d_um*n)'
 .param p_rsub2='680+55465/(d_um*n)'
 *
 * --------- equivalent network -------------------
 *
 rs 1 777 'p_rs*(1+drs_l_rf)'
 ls 2 777 'p_ls*(1+dls_l_rf)'
 cp 1 2 'p_cp*(1+dcp_l_rf) * ( 2/s_um)'
 cox1 1 771 'p_cox*(1+dcox_l_rf)'
 cox2 2 881 'p_cox*(1+dcox_l_rf)'
 rsub1 771 999 p_rsub1
 rsub2 881 999 p_rsub2
 csub1 771 999 p_csub1
 csub2 881 999 p_csub2 
 .ends
 * 
 .endl typ
 .lib 'mimcapm_rf_v2d3.lib' typ                    * typ, max, min

 .param
 *
 + dr_mim_rf=0
 + dcox1_mim_rf=0
 + dcox2_mim_rf=0.0000e+00
 + dcn_mim_rf=0.0000e+00
 *
 .include './mimcapm_rf_v2d3.mdl'
 *     #########################################
 *     #                                       #
 *     #  0.18um rfcmos mim_sh hspice model    #
 *     #                                       #  
 *     #########################################
 *
 .subckt mimcapm_rf 1 2 999 nx=1 ny=1 l=20e-6 w=20e-6 

 **********************************************
 .param dt='temper-25'
 .param leb='ny*(l+1.7e-6)+4.3e-6'        
 .param wb='nx*(w+1.7e-6)+4.3e-6'
 .param cn='0.001*(1+dcn_mim_rf)'
 .param cox='5.4478e-6'
 .param n='nx*ny'
 .param cs='n*(l*w*cn+1.5e-10*(l+w))*(1+3e-5*dt+1e-8*dt*dt)'
 .param cox1='(leb*wb*cox+3.382e-11*(leb+wb))/2'
 .param cox2= 'cox1'
 .param rs='2.0667e-2*leb/wb'
 .param k='wb/(wb+2*(1e-4-wb/2-3.25e-5))'
 .param k1='sqrt(1-k*k)'
 .param f='1/(log(2*(1+sqrt(k1))/(1-sqrt(k1))))'
 .param ls='1e-7*leb/f*(0.0074*(leb/wb)+0.2399+0.7363/(leb/wb))'
 * --------- equivalent network -------------------
 *
 c 1 11 'cs*(1.0027-0.0002*v(2,1)+3e-5*v(2,1)*v(2,1))'
 l 11 12 ls
 r 12 2 'rs* (1+dr_mim_rf)'
 c1 11 999 'cox1* (1+dcox1_mim_rf)'
 c2 2 999 'cox2*(1+dcox2_mim_rf)'
 *
 .ends
 * 
 .endl typ
 .lib 'mm180_mimcap_v101.lib' mimcaps_typ          * mimcaps_typ, mimcaps_max, mimcaps_min
 .param 

 +dcm_mimcaps_mm = 0   dcmf_mimcaps_mm = 0  
  
 .include './mm180_mimcap_v101.mdl' 
 *************************************************************************
 * the following subcircuits refer to umc 0.18um mm/rf edr.              *                              
 * spec no: g-02-mixed_mode/rfcmos18-1.8v/3.3v-1p6m-mmc-edr              *
 *************************************************************************

 *****************************************  
 *         mim capacitance               *  
 ***************************************** 
 .subckt mimcaps_mm n2 n1  
 .param w=1e-6 l=1e-6 m=1 cm='1.0e-15+dcm_mimcaps_mm' cmf='0.075e-15+dcmf_mimcaps_mm' 
 +ctc1=40e-06 cvc1=30e-06  temp   = 'temper'
 .param tcoef = '1.0+ctc1*(temp-25.0)'
 c1 n2 n1 '(w*1e6*l*1e6*cm+2*(w*1e6+l*1e6)*cmf)*(1.0+cvc1*abs(v(n1,n2)))*tcoef' m=m

 .ends mimcaps_mm 
  
 .endl  mimcaps_typ 
 .lib 'mm180_reg18bpw_v123.lib' tt                 * tt, ff, ss, fnsp, snfp

 .param  

 *1.8v nmos 
 +  dtox_n_bpw_18_mm      =   0.0000e+00                  dxl_n_bpw_18_mm       =   0.0000e+00                
 +  dxw_n_bpw_18_mm       =   0.0000e+00                  dvth0_n_bpw_18_mm     =   0.0000e+00                
 +  du0_n_bpw_18_mm       =   0.0000e+00                  dlvth0_n_bpw_18_mm    =   0.0000e+00
 +  dwvth0_n_bpw_18_mm    =   0.0000e+00                  dwu0_n_bpw_18_mm      =   0.0000e+00
 +  dpvth0_n_bpw_18_mm    =   0.0000e+00                  dpvsat_n_bpw_18_mm    =   0.0000e+00
 +  dcgdo_n_bpw_18_mm     =   0.0000e+00                  dcgso_n_bpw_18_mm     =   0.0000e+00                
 +  dcj_n_bpw_18_mm       =   0.0000e+00                  dcjsw_n_bpw_18_mm     =   0.0000e+00                
 +  dcjgate_n_bpw_18_mm   =   0.0000e+00  


 .include './mm180_reg18bpw_v123.mdl'   
 ******************************************************************************************
 *         0.18um 1.8v/3.3v mixedmode triple-well technology, 1.8v nmos model               *
 ******************************************************************************************

 .model n_bpw_18_mm nmos
 *****model selectors/controllers*********************************
 +  level     =   4.9000e+01                          version   =   3.2000e+00  
 +  binunit   =   1.0000e+00                          mobmod    =   1.0000e+00                           
 +  capmod    =   2.0000e+00                          nqsmod    =   0.0000e+00                        


 *****process parameters******************************************
 +  tox       =  '4.2000e-09+dtox_n_bpw_18_mm'            toxm      =   4.2000e-09                        
 +  xj        =   1.6000e-07                          nch       =   3.7446e+17                        
 +  rsh       =   8.0000e+00                          ngate     =   1.0000e+23


 *****basic model parameters**************************************
 +  vth0      =  '3.0750e-01+dvth0_n_bpw_18_mm'           k1        =   4.5780e-01                     
 +  k2        =  -2.6380e-02                          k3        =  -1.0880e+01                        
 +  k3b       =   2.3790e-01                          w0        =  -8.8130e-08                        
 +  nlx       =   4.2790e-07                          dvt0      =   4.0420e-01                        
 +  dvt1      =   3.2370e-01                          dvt2      =  -8.6020e-01                        
 +  dvt0w     =   3.8300e-01                          dvt1w     =   6.0000e+05                        
 +  dvt2w     =  -2.5000e-02                          lint      =   1.5870e-08                        
 +  wint      =   1.0220e-08                          dwg       =  -3.3960e-09                        
 +  dwb       =   1.3460e-09                          u0        =  '3.1410e+02+du0_n_bpw_18_mm'                       
 +  ua        =  -9.2010e-10                          ub        =   1.9070e-18
 +  uc        =   4.3550e-11                          vsat      =   7.1580e+04 
 +  a0        =   1.9300e+00                          ags       =   5.0720e-01                        
 +  b0        =   1.4860e-06                          b1        =   9.0640e-06                        
 +  keta      =   1.7520e-02                          a1        =   0.0000e+00                        
 +  a2        =   1.0000e+00                          voff      =  -1.0880e-01                        
 +  nfactor   =   1.0380e+00                          cit       =  -1.5110e-03                        
 +  cdsc      =   2.1750e-03                          cdscd     =  -5.0000e-04                        
 +  cdscb     =   8.2410e-04                          eta0      =   1.0040e-03                        
 +  etab      =  -1.4590e-03                          dsub      =   1.5920e-03                        
 +  pclm      =   1.0910e+00                          pdiblc1   =   3.0610e-03                        
 +  pdiblc2   =   1.0000e-06                          pdiblcb   =   0.0000e+00                        
 +  drout     =   1.5920e-03                          pscbe1    =   4.8660e+08                        
 +  pscbe2    =   2.8000e-07                          pvag      =  -2.9580e-01                        


 *****parameters for asymmetric and bias-dependent rds model******
 +  rdsw      =   4.9050e+00                          prwg      =   0.0000e+00                        
 +  prwb      =   0.0000e+00                          wr        =   1.0000e+00


 *****impact ionization current model parameters******************
 +  alpha0    =   0.0000e+00                          alpha1    =   0.0000e+00                        
 +  beta0     =   3.0000e+01                        


 *****gate-induced drain leakage model parameters*****************


 *****gate dielectric tunneling current model parameters**********


 *****charge and capacitance model parameters*********************
 +  xpart     =   1.0000e+00                          cgso      =  '2.3500e-10+dcgso_n_bpw_18_mm'         
 +  cgdo      =  '2.3500e-10+dcgdo_n_bpw_18_mm'           cgbo      =   0.0000e+00                        
 +  cgsl      =   0.0000e+00                          cgdl      =   0.0000e+00                        
 +  ckappa    =   6.0000e-01                          cf        =   1.5330e-10                        
 +  clc       =   1.0000e-07                          cle       =   6.0000e-01                        
 +  dlc       =   2.9000e-08                          dwc       =   0.0000e+00                        
 +  vfbcv     =  -1.0000e+00                          noff      =   1.0000e+00                        
 +  voffcv    =   0.0000e+00                          acde      =   1.0000e+00                        
 +  moin      =   1.5000e+01                        


 *****high-speed/rf model parameters******************************


 *****flicker and thermal noise model parameters******************


 *****layout-dependent parasitics model parameters****************
 +  lmin      =   1.8000e-07                          lmax      =   5.0000e-05
 +  wmin      =   2.4000e-07                          wmax      =   1.0000e-04
 +  xl        = '-1.0500e-08+dxl_n_bpw_18_mm'             xw        =  '0.0000e-00+dxw_n_bpw_18_mm'           


 *****asymmetric source/drain junction diode model parameters*****
 +  js        =   1.0000e-06                          jsw       =   7.0000e-11                        
 +  cj        =  '1.0300e-03+dcj_n_bpw_18_mm'             mj        =   4.4300e-01                        
 +  pb        =   8.1300e-01                          cjsw      =  '1.3400e-10+dcjsw_n_bpw_18_mm'         
 +  mjsw      =   3.3000e-01                        


 *****temperature dependence parameters***************************
 +  tnom      =   2.5000e+01                          ute       =  -1.2860e+00                        
 +  kt1       =  -2.2550e-01                          kt1l      =  -4.1750e-09                        
 +  kt2       =  -2.5270e-02                          ua1       =   2.1530e-09                        
 +  ub1       =  -2.6730e-18                          uc1       =  -3.8320e-11                        
 +  at        =   1.4490e+04                          prt       =  -1.0180e+01                        
 +  xti       =   3.0000e+00                        


 *****dw and dl parameters****************************************
 +  wl        =   0.0000e+00                          wln       =   1.0000e+00                        
 +  ww        =   7.2620e-16                          wwn       =   1.0000e+00                        
 +  wwl       =   0.0000e+00                          ll        =  -1.0620e-15                        
 +  lln       =   1.0000e+00                          lw        =   2.9960e-15                        
 +  lwn       =   1.0000e+00                          lwl       =   0.0000e+00                        
 +  llc       =  -2.1400e-15                          lwc       =   0.0000e+00                        
 +  lwlc      =   0.0000e+00                          wlc       =   0.0000e+00                        
 +  wwc       =   0.0000e+00                          wwlc      =   0.0000e+00                        


 *****range parameters for model application**********************


 *****other parameters********************************************
 +  lvth0     = '-1.0000e-03+dlvth0_n_bpw_18_mm'          wvth0     =  '6.027e-02+dwvth0_n_bpw_18_mm'
 +  pvth0     =  '0+dpvth0_n_bpw_18_mm'                   lnlx      =  -2.8540e-08 
 +  wnlx      =   0.0000e+00                          pnlx      =   0.0000e+00
 +  wua       =  -1.8800e-11                          wu0       =  '5.4000e-01+dwu0_n_bpw_18_mm'
 +  pub       =   3.8000e-20                          pw0       =   1.3000e-09 
 +  wrdsw     =   0.0000e+00                          weta0     =   0.0000e+00                        
 +  wetab     =   0.0000e+00                          leta0     =   1.5740e-03                        
 +  letab     =   0.0000e+00                          peta0     =   0.0000e+00                        
 +  petab     =   0.0000e+00                          wpclm     =   0.0000e+00                        
 +  wvoff     =  -4.0780e-04                          lvoff     =  -4.2080e-03                        
 +  pvoff     =  -3.7880e-04                          wa0       =  -4.7310e-02                        
 +  la0       =  -4.6670e-01                          pa0       =  -2.6490e-02  
 +  wags      =   4.2420e-03                          lags      =   3.0280e-01                        
 +  pags      =   0.0000e+00                          wketa     =   0.0000e+00                        
 +  lketa     =  -1.9420e-02                          pketa     =   0.0000e+00                        
 +  wute      =   6.3730e-02                          lute      =   0.0000e+00                        
 +  pute      =   0.0000e+00                          wvsat     =   5.0660e+03                    
 +  lvsat     =   0.0000e+00                          pvsat     =  '0.0000e+00+dpvsat_n_bpw_18_mm'                        
 +  lpdiblc2  =  -4.7520e-03                          wat       =   7.0670e+03                        
 +  wprt      =   0.0000e+00                          acm       =   3.0000e+00                        
 +  ldif      =   8.0000e-08                          hdif      =   2.6000e-07                        
 +  n         =   1.0000e+00                          php       =   8.8000e-01                        
 +  cjgate    =  '5.0000e-10+dcjgate_n_bpw_18_mm'         ctp       =   9.1400e-04                        
 +  ptp       =   9.2400e-04                          cta       =   9.1900e-04                        
 +  pta       =   1.5800e-03                          elm       =   5.0000e+00                        
 +  tlevc     =   1.0000e+00                        


  **warning** (C:\synopsys\Hspice_A-2008.03\Models\.\mm180_reg18bpw_v123.mdl:5)   model n_bpw_18_mm is not used in netlist

 .endl  tt    
 .lib 'mm180_reg18_v124.lib' tt                    * tt, ff, ss, fnsp, snfp         
 .param  

 *1.8v nmos 
 +  dtox_n_18_mm      =   0.0000e+00                  dxl_n_18_mm       =   0.0000e+00                
 +  dxw_n_18_mm       =   0.0000e+00                  dvth0_n_18_mm     =   0.0000e+00                
 +  du0_n_18_mm       =   0.0000e+00                  dlvth0_n_18_mm    =   0.0000e+00
 +  dwvth0_n_18_mm    =   0.0000e+00                  dwu0_n_18_mm      =   0.0000e+00
 +  dpvth0_n_18_mm    =   0.0000e+00                  dpvsat_n_18_mm    =   0.0000e+00
 +  dcgdo_n_18_mm     =   0.0000e+00                  dcgso_n_18_mm     =   0.0000e+00                
 +  dcj_n_18_mm       =   0.0000e+00                  dcjsw_n_18_mm     =   0.0000e+00                
 +  dcjgate_n_18_mm   =   0.0000e+00  

 *1.8v pmos 
 +  dtox_p_18_mm      =   0.0000e+00                  du0_p_18_mm       =   0.0000e+00
 +  dxl_p_18_mm       =   0.0000e+00                  dxw_p_18_mm       =   0.0000e+00                
 +  dvth0_p_18_mm     =   0.0000e+00                  dlvth0_p_18_mm    =   0.0000e+00
 +  dwvth0_p_18_mm    =   0.0000e+00
 +  dpvth0_p_18_mm    =   0.0000e+00                  dpvsat_p_18_mm    =   0.0000e+00
 +  dcgdo_p_18_mm     =   0.0000e+00                
 +  dcgso_p_18_mm     =   0.0000e+00                  dcj_p_18_mm       =   0.0000e+00                
 +  dcjsw_p_18_mm     =   0.0000e+00                  dcjgate_p_18_mm   =   0.0000e+00                

 .include './mm180_reg18_v124.mdl'   
 ******************************************************************************************
 *         0.18um 1.8v/3.3v mixedmode twin-well technology, 1.8v nmos model               *
 ******************************************************************************************

 .model n_18_mm nmos
 *****model selectors/controllers*********************************
 +  level     =   4.9000e+01                          version   =   3.2000e+00  
 +  binunit   =   1.0000e+00                          mobmod    =   1.0000e+00                           
 +  capmod    =   2.0000e+00                          nqsmod    =   0.0000e+00                        


 *****process parameters******************************************
 +  tox       =  '4.2000e-09+dtox_n_18_mm'            toxm      =   4.2000e-09                        
 +  xj        =   1.6000e-07                          nch       =   3.7446e+17                        
 +  rsh       =   8.0000e+00                          ngate     =   1.0000e+23


 *****basic model parameters**************************************
 +  vth0      =  '3.0750e-01+dvth0_n_18_mm'           k1        =   4.5780e-01                     
 +  k2        =  -2.6380e-02                          k3        =  -1.0880e+01                        
 +  k3b       =   2.3790e-01                          w0        =  -8.8130e-08                        
 +  nlx       =   4.2790e-07                          dvt0      =   4.0420e-01                        
 +  dvt1      =   3.2370e-01                          dvt2      =  -8.6020e-01                        
 +  dvt0w     =   3.8300e-01                          dvt1w     =   6.0000e+05                        
 +  dvt2w     =  -2.5000e-02                          lint      =   1.5870e-08                        
 +  wint      =   1.0220e-08                          dwg       =  -3.3960e-09                        
 +  dwb       =   1.3460e-09                          u0        =  '3.1410e+02+du0_n_18_mm'                       
 +  ua        =  -9.2010e-10                          ub        =   1.9070e-18
 +  uc        =   4.3550e-11                          vsat      =   7.1580e+04 
 +  a0        =   1.9300e+00                          ags       =   5.0720e-01                        
 +  b0        =   1.4860e-06                          b1        =   9.0640e-06                        
 +  keta      =   1.7520e-02                          a1        =   0.0000e+00                        
 +  a2        =   1.0000e+00                          voff      =  -1.0880e-01                        
 +  nfactor   =   1.0380e+00                          cit       =  -1.5110e-03                        
 +  cdsc      =   2.1750e-03                          cdscd     =  -5.0000e-04                        
 +  cdscb     =   8.2410e-04                          eta0      =   1.0040e-03                        
 +  etab      =  -1.4590e-03                          dsub      =   1.5920e-03                        
 +  pclm      =   1.0910e+00                          pdiblc1   =   3.0610e-03                        
 +  pdiblc2   =   1.0000e-06                          pdiblcb   =   0.0000e+00                        
 +  drout     =   1.5920e-03                          pscbe1    =   4.8660e+08                        
 +  pscbe2    =   2.8000e-07                          pvag      =  -2.9580e-01                        


 *****parameters for asymmetric and bias-dependent rds model******
 +  rdsw      =   4.9050e+00                          prwg      =   0.0000e+00                        
 +  prwb      =   0.0000e+00                          wr        =   1.0000e+00


 *****impact ionization current model parameters******************
 +  alpha0    =   0.0000e+00                          alpha1    =   0.0000e+00                        
 +  beta0     =   3.0000e+01                        


 *****gate-induced drain leakage model parameters*****************


 *****gate dielectric tunneling current model parameters**********


 *****charge and capacitance model parameters*********************
 +  xpart     =   1.0000e+00                          cgso      =  '2.3500e-10+dcgso_n_18_mm'         
 +  cgdo      =  '2.3500e-10+dcgdo_n_18_mm'           cgbo      =   0.0000e+00                        
 +  cgsl      =   0.0000e+00                          cgdl      =   0.0000e+00                        
 +  ckappa    =   6.0000e-01                          cf        =   1.5330e-10                        
 +  clc       =   1.0000e-07                          cle       =   6.0000e-01                        
 +  dlc       =   2.9000e-08                          dwc       =   0.0000e+00                        
 +  vfbcv     =  -1.0000e+00                          noff      =   1.0000e+00                        
 +  voffcv    =   0.0000e+00                          acde      =   1.0000e+00                        
 +  moin      =   1.5000e+01                        


 *****high-speed/rf model parameters******************************


 *****flicker and thermal noise model parameters******************
 +  noimod    =   2                                   noia      =   1.3182567385564e+19
 +  noib      =   144543.977074592                    noic      =   -1.24515794572817e-12
 +  ef        =   0.92                                em        =   41000000


 *****layout-dependent parasitics model parameters****************
 +  lmin      =   1.8000e-07                          lmax      =   5.0000e-05
 +  wmin      =   2.4000e-07                          wmax      =   1.0000e-04
 +  xl        = '-1.0500e-08+dxl_n_18_mm'             xw        =  '0.0000e-00+dxw_n_18_mm'           


 *****asymmetric source/drain junction diode model parameters*****
 +  js        =   1.0000e-06                          jsw       =   7.0000e-11                        
 +  cj        =  '1.0300e-03+dcj_n_18_mm'             mj        =   4.4300e-01                        
 +  pb        =   8.1300e-01                          cjsw      =  '1.3400e-10+dcjsw_n_18_mm'         
 +  mjsw      =   3.3000e-01                        


 *****temperature dependence parameters***************************
 +  tnom      =   2.5000e+01                          ute       =  -1.2860e+00                        
 +  kt1       =  -2.2550e-01                          kt1l      =  -4.1750e-09                        
 +  kt2       =  -2.5270e-02                          ua1       =   2.1530e-09                        
 +  ub1       =  -2.6730e-18                          uc1       =  -3.8320e-11                        
 +  at        =   1.4490e+04                          prt       =  -1.0180e+01                        
 +  xti       =   3.0000e+00                        


 *****dw and dl parameters****************************************
 +  wl        =   0.0000e+00                          wln       =   1.0000e+00                        
 +  ww        =   7.2620e-16                          wwn       =   1.0000e+00                        
 +  wwl       =   0.0000e+00                          ll        =  -1.0620e-15                        
 +  lln       =   1.0000e+00                          lw        =   2.9960e-15                        
 +  lwn       =   1.0000e+00                          lwl       =   0.0000e+00                        
 +  llc       =  -2.1400e-15                          lwc       =   0.0000e+00                        
 +  lwlc      =   0.0000e+00                          wlc       =   0.0000e+00                        
 +  wwc       =   0.0000e+00                          wwlc      =   0.0000e+00                        


 *****range parameters for model application**********************


 *****other parameters********************************************
 +  lvth0     = '-1.0000e-03+dlvth0_n_18_mm'          wvth0     =  '6.027e-02+dwvth0_n_18_mm'
 +  pvth0     =  '0+dpvth0_n_18_mm'                   lnlx      =  -2.8540e-08 
 +  wnlx      =   0.0000e+00                          pnlx      =   0.0000e+00
 +  wua       =  -1.8800e-11                          wu0       =  '5.4000e-01+dwu0_n_18_mm'
 +  pub       =   3.8000e-20                          pw0       =   1.3000e-09 
 +  wrdsw     =   0.0000e+00                          weta0     =   0.0000e+00                        
 +  wetab     =   0.0000e+00                          leta0     =   1.5740e-03                        
 +  letab     =   0.0000e+00                          peta0     =   0.0000e+00                        
 +  petab     =   0.0000e+00                          wpclm     =   0.0000e+00                        
 +  wvoff     =  -4.0780e-04                          lvoff     =  -4.2080e-03                        
 +  pvoff     =  -3.7880e-04                          wa0       =  -4.7310e-02                        
 +  la0       =  -4.6670e-01                          pa0       =  -2.6490e-02  
 +  wags      =   4.2420e-03                          lags      =   3.0280e-01                        
 +  pags      =   0.0000e+00                          wketa     =   0.0000e+00                        
 +  lketa     =  -1.9420e-02                          pketa     =   0.0000e+00                        
 +  wute      =   6.3730e-02                          lute      =   0.0000e+00                        
 +  pute      =   0.0000e+00                          wvsat     =   5.0660e+03                    
 +  lvsat     =   0.0000e+00                          pvsat     =  '0.0000e+00+dpvsat_n_18_mm'                        
 +  lpdiblc2  =  -4.7520e-03                          wat       =   7.0670e+03                        
 +  wprt      =   0.0000e+00                          acm       =   3.0000e+00                        
 +  ldif      =   8.0000e-08                          hdif      =   2.6000e-07                        
 +  n         =   1.0000e+00                          php       =   8.8000e-01                        
 +  cjgate    =  '5.0000e-10+dcjgate_n_18_mm'         ctp       =   9.1400e-04                        
 +  ptp       =   9.2400e-04                          cta       =   9.1900e-04                        
 +  pta       =   1.5800e-03                          elm       =   5.0000e+00                        
 +  tlevc     =   1.0000e+00                        
  **warning** (C:\synopsys\Hspice_A-2008.03\Models\.\mm180_reg18_v124.mdl:46)  model n_18_mm         device geometries will not be checked against the limits set bylmin, lmax, wmin and wmax. To enable this check, add a period(.)to the model name(i.e. enable model selector).


 ******************************************************************************************
 *         0.18um 1.8v/3.3v mixedmode twin-well technology, 1.8v pmos model               *
 ******************************************************************************************

 .model p_18_mm pmos
 *****model selectors/controllers*********************************
 +  level     =   4.9000e+01                          mobmod    =   3.0000e+00                        
 +  version   =   3.2000e+00                          capmod    =   2.0000e+00                        
 +  binunit   =   1.0000e+00                          nqsmod    =   0.0000e+00
  

 *****process parameters******************************************
 +  tox       =  '4.2000e-09+dtox_p_18_mm'            toxm      =   4.2000e-09                        
 +  xj        =   1.0000e-07                          nch       =   6.1310e+17                        
 +  ngate     =   1.0000e+23 

 *****basic model parameters**************************************
 +  vth0      = '-4.5550e-01+dvth0_p_18_mm'           k1        =   5.7040e-01                        
 +  k2        =   6.9730e-03                          k3        =  -2.8330e+00                        
 +  k3b       =   1.3260e+00                          w0        =  -1.9430e-07                        
 +  nlx       =   2.5300e-07                          dvt0      =   4.8850e-01                        
 +  dvt1      =   7.5780e-02                          dvt2      =   1.2870e-01                        
 +  dvt0w     =  -1.2610e-01                          dvt1w     =   2.4790e+04                        
 +  dvt2w     =   6.9150e-01                          lint      =  -1.0410e-08                        
 +  wint      =  -1.5250e-07                          dwg       =  -1.1510e-07                        
 +  dwb       =  -1.0390e-07                          u0        =  '1.1450e+02+du0_p_18_mm'  
 +  ua        =   1.5400e-09                          ub        =   2.6460e-19
 +  uc        =  -9.5870e-02                          vsat      =   5.3400e+04                                                                                            
 +  a0        =   1.3500e+00                          ags       =   3.8180e-01                        
 +  b0        =  -3.0880e-07                          b1        =   0.0000e+00                        
 +  keta      =   1.0440e-02                          a1        =   0.0000e+00                        
 +  a2        =   1.0000e+00                          voff      =  -1.0730e-01                                                                    
 +  nfactor   =   1.5350e-00                          cit       =  -1.0670e-03 
 +  cdsc      =   7.5780e-04                          cdscd     =  -2.8830e-05                        
 +  cdscb     =   1.0000e-04                          eta0      =   1.0710e+00                        
 +  etab      =  -9.2910e-01                          dsub      =   1.9191e+00
 +  pclm      =   2.6530e+00                          pdiblc1   =   0.0000e+00                        
 +  pdiblc2   =   5.0000e-06                          pdiblcb   =   0.0000e+00                        
 +  drout     =   1.4570e+00                          pscbe1    =   4.8660e+08                        
 +  pscbe2    =   2.8000e-07                          pvag      =   1.1620e+00                        


 *****parameters for asymmetric and bias-dependent rds model******
 +  rdsw      =   7.9210e+02                          prwg      =   0.0000e+00                        
 +  prwb      =   0.0000e+00                        


 *****impact ionization current model parameters******************
 +  alpha0    =   0.0000e+00                          alpha1    =   0.0000e+00                        
 +  beta0     =   3.0000e+01                        


 *****gate-induced drain leakage model parameters*****************


 *****gate dielectric tunneling current model parameters**********


 *****charge and capacitance model parameters*********************
 +  cgdo      =  '2.0540e-10+dcgdo_p_18_mm'           cgbo      =   0.0000e+00                        
 +  cgso      =  '2.0540e-10+dcgso_p_18_mm'           xpart     =   1.0000e+00                        
 +  cf        =   1.5330e-10                          dlc       =   5.6000e-08                                                                              
 +  cgsl      =   0.0000e+00                          cgdl      =   0.0000e+00                        
 +  ckappa    =   6.0000e-01                                                  
 +  clc       =   1.0000e-07                          cle       =   6.0000e-01                        
 +  dwc       =   0.0000e+00                        
 +  vfbcv     =  -1.0000e+00                          noff      =   1.0000e+00                        
 +  voffcv    =   0.0000e+00                          acde      =   1.0000e+00                        
 +  moin      =   1.5000e+01                        


 *****high-speed/rf model parameters******************************


 *****flicker and thermal noise model parameters******************
 +  noimod    =   2                                   noia      =   3.57456993317604e+18
 +  noib      =   2500                                noic      =   2.61260020285845e-11
 +  ef        =   1.1388                              em        =   41000000


 *****layout-dependent parasitics model parameters****************
 +  lmin      =   1.8000e-07                          lmax      =   5.0000e-05
 +  wmin      =   2.4000e-07                          wmax      =   1.0000e-04
 +  xl        = '-2.0000e-09+dxl_p_18_mm'             xw        =  '0.0000e+00+dxw_p_18_mm'           


 *****asymmetric source/drain junction diode model parameters*****
 +  js        =   3.0000e-06                          jsw       =   4.1200e-11                        
 +  cj        =  '1.1400e-03+dcj_p_18_mm'             mj        =   3.9500e-01                        
 +  pb        =   7.6200e-01                          cjsw      =  '1.7400e-10+dcjsw_p_18_mm'         
 +  mjsw      =   3.2400e-01                        


 *****temperature dependence parameters***************************
 +  tnom      =   2.5000e+01                          ute       =  -4.4840e-01                        
 +  kt1       =  -2.1940e-01                          kt1l      =  -8.2040e-09                        
 +  kt2       =  -9.4870e-03                          ua1       =   4.5710e-09                        
 +  ub1       =  -6.0260e-18                          uc1       =  -9.8500e-02                        
 +  at        =   1.2030e+04                          prt       =   0.0000e+00                        
 +  xti       =   3.0000e+00                        


 *****dw and dl parameters****************************************
 +  ww        =   1.2360e-14                          lw        =  -2.8730e-16                        
 +  ll        =   6.6350e-15                        
 +  wl        =   0.0000e+00                          wln       =   1.0000e+00                        
 +  wwn       =   1.0000e+00                        
 +  wwl       =   0.0000e+00                                                 
 +  lln       =   1.0000e+00                                                
 +  lwn       =   1.0000e+00                          lwl       =   0.0000e+00                        
 +  llc       =  -7.4500e-15                          lwc       =   0.0000e+00                        
 +  lwlc      =   0.0000e+00                          wlc       =   0.0000e+00                        
 +  wwc       =   0.0000e+00                          wwlc      =   0.0000e+00                        



 *****range parameters for model application**********************


 *****other parameters********************************************
 +  lvth0     =  '4.4000e-03+dlvth0_p_18_mm'          wvth0     = '-1.4800e-02+dwvth0_p_18_mm'                        
 +  pvth0     =  '3.2000e-03+dpvth0_p_18_mm'          lnlx      =  -1.5840e-08 
 +  wrdsw     =   1.0070e+01                          weta0     =   0.0000e+00                        
 +  wetab     =   0.0000e+00                          wpclm     =   0.0000e+00                        
 +  wua       =   2.6300e-09                          lua       =  -8.1530e-11
 +  pua       =   5.8550e-11                          wub       =   0.0000e+00                        
 +  lub       =   0.0000e+00                          pub       =   0.0000e+00                        
 +  wuc       =   0.0000e+00                          luc       =   0.0000e+00                        
 +  puc       =   0.0000e+00                          wvoff     =  -9.8160e-03                        
 +  lvoff     =  -9.8710e-04                          pvoff     =  -9.8330e-05                        
 +  wa0       =  -4.8070e-02                          la0       =  -2.8100e-01
 +  pa0       =   8.6610e-02                          wags      =  -4.1770e-02                        
 +  lags      =   4.4540e-02                          pags      =  -4.0760e-02                        
 +  wketa     =   0.0000e+00                          lketa     =  -1.2000e-02
 +  pketa     =   0.0000e+00                          wute      =  -2.6820e-01                        
 +  lute      =   0.0000e+00                          pute      =   0.0000e+00                        
 +  wvsat     =  -1.4200e+04                          lvsat     =   0.0000e+00                        
[...]
           ll=-1.062e-015                 lln=          1         
           lw= 2.996e-015                 lwn=          1         
          lwl=          0                  wl=          0         
          wln=          1                  ww= 7.262e-016         
          wwn=          1                 wwl=          0         
          dwg=-3.396e-009 m/V             dwb= 1.346e-009 m/V^1/2 
           a0=       1.93                 ags=     0.5072 V^-1    
           b0= 1.486e-006 meter            b1= 9.064e-006 meter   
         keta=    0.01752 V^-1           voff=    -0.1088 V       
        ngate=     1e+023 cm^-3           vbx=          0 V       
          vbm=         -3 V                xt=  1.55e-007 meter   
         vth0=     0.3075 V               nch=3.7446e+017 cm^-3   
         nsub=     6e+016 cm^-3           nlx= 4.279e-007 meter   
       gamma1=          0 V^-1/2       gamma2=          0 V^-1/2  
           k1=     0.4578 V^1/2            k2=   -0.02638         
           k3=     -10.88                 k3b=     0.2379 V^-1    
           w0=-8.813e-008 meter          dvt0=     0.4042         
         dvt1=     0.3237                dvt2=    -0.8602 V^-1    
        dvt0w=      0.383 meter^-1      dvt1w=     600000 meter^-1
        dvt2w=     -0.025 V^-1           dsub=   0.001592         
         eta0=   0.001004                etab=  -0.001459 V^-1    
           u0=      314.1 cm^2/V/sec         ua=-9.201e-010 m/V     
           ub= 1.907e-018 (m/V)^2          uc= 4.355e-011 V^-1    
         vsat=      71580 m/sec            a1=          0 v^-1    
           a2=          1               delta=       0.01 V       
         rdsw=      4.905 ohm-um         prwg=          0 V^-1    
         prwb=          0 V^-1/2           wr=          1         
         pclm=      1.091             pdiblc1=   0.003061         
      pdiblc2=     1e-006             pdiblcb=          0 V^-1    
       pscbe1= 4.866e+008 V/m          pscbe2=   2.8e-007 V/m     
        drout=   0.001592                pvag=    -0.2958         
      nfactor=      1.038                cdsc=   0.002175 f/m^2   
        cdscb=  0.0008241 f/V/m^2       cdscd=    -0.0005 f/V/m^2 
          cit=  -0.001511 f/m^2        alpha0=          0 m/V     
        beta0=         30 V               dlc=   2.9e-008 meter   
          dwc=          0 meter           clc=     1e-007 meter   
          cle=        0.6                cgso=  2.35e-010 f/m     
         cgdo=  2.35e-010 f/m            cgbo=          0 f/m     
         cgsl=          0 f/m            cgdl=          0 f/m     
       ckappa=        0.6                  cf= 1.533e-010 f/m     
         acde=          1 m/V            moin=         15 V^1/2   
         toxm=   4.2e-009 m            dtoxcv=          0 m       
          vfb (not used)                alpha1=          0 1/V     
         ijth=          0 A              noff=          1         
       voffcv=          0                 tcj=          0 1/K     
        tcjsw=          0 1/K          tcjswg=          0 1/K     
          tpb=          0 V/K           tpbsw=          0 V/K     
       tpbswg=          0 V/K             llc= -2.14e-015         
          lwc=          0                lwlc=          0         
          wlc=          0                 wwc=          0         
         wwlc=          0                tnom=     298.15 K       
          kt1=    -0.2255 V              kt1l=-4.175e-009         
          kt2=   -0.02527                 ute=     -1.286         
          ua1= 2.153e-009 m/V             ub1=-2.673e-018 (m/V)^2 
          uc1=-3.832e-011 m/V^2            at=      14490 m/s     
          prt=     -10.18         
          using Berkeley noise model       noiMod=          2         
         noia=1.31826e+019                noib=     144544         
         noic=-1.24516e-012                  em=   4.1e+007         
           ef=       0.92                  af=          1         
           kf=          0              gdsnoi=-1.23457e-029         
          using Hspice diodes            using ACM 
          acm=         3                 hdif=  2.6e-007 meter    
         ldif=    8e-008 meter             js=    1e-006 amp/m^2  
          jsw=    7e-011 amp/m            xti=         3          
            n=         1                   cj=   0.00103 f/m^2    
           mj=     0.443                   pb=     0.813 V        
         cjsw= 1.34e-010 f/m             mjsw=      0.33          
          php=      0.88 V               pbsw (not used)           
       cjgate=    5e-010 f/m            cjswg (not used)           
        mjswg (not used)                 pbswg (not used)           
          la0=    -0.4667                lags=     0.3028         
        lketa=   -0.01942               lvoff=  -0.004208         
        lvth0=     -0.001                lnlx=-2.854e-008         
        leta0=   0.001574            lpdiblc2=  -0.004752         
          wa0=   -0.04731                wags=   0.004242         
        wvoff= -0.0004078               wvth0=    0.06027         
          wu0=       0.54                 wua= -1.88e-011         
        wvsat=       5066                wute=    0.06373         
          wat=       7067                 pa0=   -0.02649         
        pvoff= -0.0003788                 pw0=   1.3e-009         
          pub=   3.8e-020         
 ***************************************************************************
 ***        model parameters  model name:   0:p_18_mm  model type:pmos   ***
 ***************************************************************************

   *** general parameters ***
    deriv=   0.           

   ***  level 49  model parameters  ***

       hspver=    2006.03               level=         49         
      version=        3.2            paramchk=          0         
       apwarn=          1                lite=          0         
       vgslim=          0             binUnit=          1         
       capMod=          2               xpart=          1         
       mobMod=          3              nqsMod=          0         
       stiMod=          0                 elm=          5         
     sfvtflag=          0                 tox=   4.2e-009 meter   
           xj=     1e-007 meter       binflag=          0         
         lmin=   1.8e-007 meter          lmax=     5e-005 meter   
         wmin=   2.4e-007 meter          wmax=     0.0001 meter   
         lref=          0 meter          wref=          0 meter   
         lint=-1.041e-008 meter          wint=-1.525e-007 meter   
        lmult=          1               wmult=          1         
           ll= 6.635e-015                 lln=          1         
           lw=-2.873e-016                 lwn=          1         
          lwl=          0                  wl=          0         
          wln=          1                  ww= 1.236e-014         
          wwn=          1                 wwl=          0         
          dwg=-1.151e-007 m/V             dwb=-1.039e-007 m/V^1/2 
           a0=       1.35                 ags=     0.3818 V^-1    
           b0=-3.088e-007 meter            b1=          0 meter   
         keta=    0.01044 V^-1           voff=    -0.1073 V       
        ngate=     1e+023 cm^-3           vbx=          0 V       
          vbm=         -3 V                xt=  1.55e-007 meter   
         vth0=    -0.4555 V               nch= 6.131e+017 cm^-3   
         nsub=     6e+016 cm^-3           nlx=  2.53e-007 meter   
       gamma1=          0 V^-1/2       gamma2=          0 V^-1/2  
           k1=     0.5704 V^1/2            k2=   0.006973         
           k3=     -2.833                 k3b=      1.326 V^-1    
           w0=-1.943e-007 meter          dvt0=     0.4885         
         dvt1=    0.07578                dvt2=     0.1287 V^-1    
        dvt0w=    -0.1261 meter^-1      dvt1w=      24790 meter^-1
        dvt2w=     0.6915 V^-1           dsub=     1.9191         
         eta0=      1.071                etab=    -0.9291 V^-1    
           u0=      114.5 cm^2/V/sec         ua=  1.54e-009 m/V     
           ub= 2.646e-019 (m/V)^2          uc=   -0.09587 V^-1    
         vsat=      53400 m/sec            a1=          0 v^-1    
           a2=          1               delta=       0.01 V       
         rdsw=      792.1 ohm-um         prwg=          0 V^-1    
         prwb=          0 V^-1/2           wr=          1         
         pclm=      2.653             pdiblc1=          0         
      pdiblc2=     5e-006             pdiblcb=          0 V^-1    
       pscbe1= 4.866e+008 V/m          pscbe2=   2.8e-007 V/m     
        drout=      1.457                pvag=      1.162         
      nfactor=      1.535                cdsc=  0.0007578 f/m^2   
        cdscb=     0.0001 f/V/m^2       cdscd=-2.883e-005 f/V/m^2 
          cit=  -0.001067 f/m^2        alpha0=          0 m/V     
        beta0=         30 V               dlc=   5.6e-008 meter   
          dwc=          0 meter           clc=     1e-007 meter   
          cle=        0.6                cgso= 2.054e-010 f/m     
         cgdo= 2.054e-010 f/m            cgbo=          0 f/m     
         cgsl=          0 f/m            cgdl=          0 f/m     
       ckappa=        0.6                  cf= 1.533e-010 f/m     
         acde=          1 m/V            moin=         15 V^1/2   
         toxm=   4.2e-009 m            dtoxcv=          0 m       
          vfb (not used)                alpha1=          0 1/V     
         ijth=          0 A              noff=          1         
       voffcv=          0                 tcj=          0 1/K     
        tcjsw=          0 1/K          tcjswg=          0 1/K     
          tpb=          0 V/K           tpbsw=          0 V/K     
       tpbswg=          0 V/K             llc= -7.45e-015         
          lwc=          0                lwlc=          0         
          wlc=          0                 wwc=          0         
         wwlc=          0                tnom=     298.15 K       
          kt1=    -0.2194 V              kt1l=-8.204e-009         
          kt2=  -0.009487                 ute=    -0.4484         
          ua1= 4.571e-009 m/V             ub1=-6.026e-018 (m/V)^2 
          uc1=    -0.0985 m/V^2            at=      12030 m/s     
          prt=          0         
          using Berkeley noise model       noiMod=          2         
         noia=3.57457e+018                noib=       2500         
         noic=2.6126e-011                  em=   4.1e+007         
           ef=     1.1388                  af=          1         
           kf=          0              gdsnoi=-1.23457e-029         
          using Hspice diodes            using ACM 
          acm=         3                 hdif=  2.6e-007 meter    
         ldif=    8e-008 meter             js=    3e-006 amp/m^2  
          jsw= 4.12e-011 amp/m            xti=         3          
            n=         1                   cj=   0.00114 f/m^2    
           mj=     0.395                   pb=     0.762 V        
         cjsw= 1.74e-010 f/m             mjsw=     0.324          
          php=     0.665 V               pbsw (not used)           
       cjgate=  4.2e-010 f/m            cjswg (not used)           
        mjswg (not used)                 pbswg (not used)           
          la0=     -0.281                lags=    0.04454         
        lketa=     -0.012               lvoff= -0.0009871         
        lvth0=     0.0044                lnlx=-1.584e-008         
          lua=-8.153e-011            lpdiblc2=   0.003012         
          wa0=   -0.04807                wags=   -0.04177         
        wvoff=  -0.009816               wvth0=    -0.0148         
          wua=  2.63e-009               wvsat=     -14200         
        wrdsw=      10.07                wute=    -0.2682         
          wat=      -6405                wprt=      216.6         
          pa0=    0.08661                pags=   -0.04076         
        pvoff=-9.833e-005               pvth0=     0.0032         
          pua= 5.855e-011               pvsat=       -434         

 **warning** both nodes of source     0:vss             
             are connected together


 **warning** dc voltage reset to initial transient source value
             in source        0:va                  new dc=  0.1800D+01


 *** warning *** pulse rise time is  < or = zero, reset to tstep


 *** warning *** pulse fall time is  < or = zero, reset to tstep


 **warning** dc voltage reset to initial transient source value
             in source        0:vb                  new dc=  0.1800D+01


 *** warning *** pulse rise time is  < or = zero, reset to tstep


 *** warning *** pulse fall time is  < or = zero, reset to tstep

 

 
      
  Opening plot unit= 79
 file=c:\users\user\desktop\107360145project109-1\xor.pa0                      

1****** HSPICE -- A-2008.03 32-BIT (Feb 26 2008) winnt ******                   
 ******  
 ****xor****                                                                    
  ******  operating point information      tnom=  25.000 temp=  25.000          
 ******  
 ***** operating point status is all       simulation time is     0.     
    node    =voltage      node    =voltage      node    =voltage

 +0:a       =   1.8000  0:b       =   1.8000  0:c       =  42.9829n
 +0:d       =   1.8000  0:e       =   1.8000  0:vdd     =   1.8000 
 +0:vout    =  10.7457n 1:mnas    =  21.4915n 2:norout  =   1.9696n
 +3:mnas    =   6.5709n 5:c       =   1.7594 


 ****  voltage sources

 subckt                                   
 element  0:vdd      0:va       0:vb      
  volts      1.8000     1.8000     1.8000 
  current  -97.4421p    0.         0.     
  power    175.3958p    0.         0.     

     total voltage source power dissipation=  175.3958p       watts




 **** mosfets


 subckt   xnand1     xnand1     xnand1     xnand1     xnand2     xnand2    
 element  1:mpa      1:mpb      1:mna      1:mnb      3:mpa      3:mpb     
 model    0:p_18_mm  0:p_18_mm  0:n_18_mm  0:n_18_mm  0:p_18_mm  0:p_18_mm 
 region       Cutoff     Cutoff     Linear     Linear     Linear     Cutoff
  id        16.8469p   16.8469p   40.8945p   40.8945p   14.3035p    2.6495a
  ibs      308.0304a  308.0304a -3.092e-24 -1.219e-26  2.113e-24  2.115e-24
  ibd      2.212e-27  2.212e-27 -6.148e-24 -3.068e-24  1.697e-27    0.     
  vgs        1.8000     1.8000     1.8000     1.8000    -1.8000   697.6641f
  vds        1.8000     1.8000    21.4915n   21.4915n   12.3565n   12.3565n
  vbs        1.8000     1.8000   -21.4915n    0.        12.3565n   12.3565n
  vth     -525.4626m -525.4626m  521.0897m  521.0897m -537.5781m -537.5781m
  vdsat    -56.9628m  -56.9628m  509.4012m  509.4012m -967.2589m  -56.9785m
  vod        2.3255     2.3255     1.2789     1.2789    -1.2624   537.5781m
  beta       1.6925m    1.6925m    1.5444m    1.5444m    1.2934m    1.6796m
  gam eff  557.0907m  557.0907m  507.4459m  507.4459m  557.0907m  557.0907m
  gm       437.5058p  437.5058p   19.9524p   19.9524p    6.4089p   68.1956a
  gds        6.1363p    6.1363p    1.9180m    1.9180m    1.1594m  214.4177p
  gmb      158.3147p  158.3147p    5.4700p    5.4700p    3.5148p   25.3416a
  cdtot      4.8175f    4.8175f    2.9913f    2.9913f    8.6138f    4.8175f
  cgtot      3.2480f    3.2480f    1.9029f    1.9029f    5.8514f    3.2480f
  cstot      3.4616f    3.4616f    2.7971f    2.7971f    8.9979f    4.8175f
  cbtot      7.2227f    7.2227f    2.8706f    2.8706f    8.5854f    8.5785f
  cgs        1.0761f    1.0761f  905.0480a  905.0480a    2.8590f    1.0761f
  cgd        1.0761f    1.0761f  904.6640a  904.6640a    2.9701f    1.0761f



 subckt   xnand2     xnand2     xnot1      xnot1      xor1.xnor  xor1.xnor 
 element  3:mna      3:mnb      4:mp1      4:mn1      5:mpa      5:mpb     
 model    0:n_18_mm  0:n_18_mm  0:p_18_mm  0:n_18_mm  0:p_18_mm  0:p_18_mm 
 region       Cutoff     Linear     Cutoff     Linear     Cutoff     Cutoff
  id        10.7032p   12.5032p  -16.8469p   20.4472p   -5.5734p   -3.9359p
  ibs     -9.455e-25 -3.727e-27  2.212e-27 -6.095e-27  6.661e-28    6.9414a
  ibd     -257.9760a -9.380e-25  308.0304a -1.534e-24    6.9414a  308.0304a
  vgs       36.4121n    1.8000   -12.3565n    1.8000     0.        40.5625m
  vds        1.8000     6.5709n   -1.8000    10.7457n  -40.5625m   -1.7594 
  vbs       -6.5709n    0.         0.         0.         0.        40.5625m
  vth      457.2301m  521.0897m -525.4626m  521.0897m -537.3051m -537.0571m
  vdsat     53.8309m  509.4012m  -56.9628m  509.4012m  -56.9782m  -56.9578m
  vod     -457.2301m    1.2789   525.4626m    1.2789   537.3051m  577.6197m
  beta       1.9513m    1.5444m    1.6925m    1.5444m    1.6799m    1.6803m
  gam eff  507.4459m  507.4459m  557.0907m  507.4459m  557.0907m  556.7976m
  gm       355.2075p    6.1003p  437.5059p    9.9762p  143.4848p  102.9695p
  gds        8.3657p    1.9180m    6.1363p    1.9180m   71.2672p    1.4405p
  gmb       51.0836p    1.6724p  158.3147p    2.7350p   53.2959p   37.1123p
  cdtot      1.2431f    2.9913f    3.4616f    2.9913f    4.7441f    3.4616f
  cgtot      1.0720f    1.9029f    3.2480f    1.9029f    3.2480f    3.2480f
  cstot      1.6973f    2.7971f    4.8175f    2.7971f    4.8175f    4.7441f
  cbtot      2.4592f    2.8706f    7.2227f    2.8706f    8.5051f    7.1493f
  cgs      388.3092a  905.0480a    1.0761f  905.0480a    1.0761f    1.0761f
  cgd      388.3000a  904.6641a    1.0761f  904.6641a    1.0761f    1.0761f



 subckt   xor1.xnor  xor1.xnor  xor1.xnot  xor1.xnot 
 element  5:mna      5:mnb      6:mp1      6:mn1     
 model    0:n_18_mm  0:n_18_mm  0:p_18_mm  0:n_18_mm 
 region       Linear     Linear     Linear     Cutoff
  id         3.7478p    3.7478p  -14.3027p   10.7032p
  ibs     -1.117e-27 -1.117e-27  1.697e-27 -3.727e-27
  ibd     -2.812e-25 -2.812e-25  2.113e-24 -257.9760a
  vgs        1.8000     1.8000    -1.8000     1.9696n
  vds        1.9696n    1.9696n  -12.3558n    1.8000 
  vbs        0.         0.         0.         0.     
  vth      521.0897m  521.0897m -537.5781m  457.2301m
  vdsat    509.4012m  509.4012m -967.2589m   53.8309m
  vod        1.2789     1.2789    -1.2624  -457.2301m
  beta       1.5444m    1.5444m    1.2934m    1.9513m
  gam eff  507.4459m  507.4459m  557.0907m  507.4459m
  gm         1.8286p    1.8286p    6.4086p  355.2071p
  gds        1.9180m    1.9180m    1.1594m    8.3657p
  gmb      501.3087f  501.3087f    3.5146p   51.0835p
  cdtot      2.9913f    2.9913f    8.9979f    1.2431f
  cgtot      1.9029f    1.9029f    5.8514f    1.0720f
  cstot      2.7971f    2.7971f    8.6138f    1.6973f
  cbtot      2.8706f    2.8706f    8.5854f    2.4592f
  cgs      905.0480a  905.0480a    2.9701f  388.3092a
  cgd      904.6641a  904.6641a    2.8590f  388.3000a




          ***** job concluded
1****** HSPICE -- A-2008.03 32-BIT (Feb 26 2008) winnt ******                   
 ******  
 ****xor****                                                                    
  ******  job statistics summary           tnom=  25.000 temp=  25.000          
 ******  

           total memory used        753 kbytes

  # nodes =      44 # elements=      19
  # diodes=       0 # bjts    =       0 # jfets   =       0 # mosfets =      16
  # va device =       0

    analysis           time    # points   tot. iter  conv.iter

    op point           0.01           1          24
    transient          0.25    10000001        1127         461 rev=        10
    readin             0.06
    errchk             0.01
    setup              0.01
    output             0.00
           total cpu time          0.36 seconds
           total elapsed time         1 seconds
               job started at  21:10:46 11/02/2020
               job ended   at  21:10:46 11/02/2020


 Init: hspice initialization file: C:\synopsys\Hspice_A-2008.03\hspice.ini
